/*---------------------------------------------------------------------------*\
| =========                 |                                                 |
| \\      /  F ield         | OpenFOAM: The Open Source CFD Toolbox           |
|  \\    /   O peration     | Version:  2.3.0                                 |
|   \\  /    A nd           | Web:      www.OpenFOAM.org                      |
|    \\/     M anipulation  |                                                 |
\*---------------------------------------------------------------------------*/
Build  : 2.3.0-f5222ca19ce6
Exec   : scalarTransportDyMFoamMC -parallel
Date   : Apr 23 2015
Time   : 15:28:04
Host   : "node7"
PID    : 19658
Case   : /u/user/OpenFOAM/user-2.3.0/gtessi/pantografoCasoB
nProcs : 4
Slaves : 
3
(
"node7.19661"
"node7.19662"
"node7.19663"
)

Pstream initialized with:
    floatTransfer      : 0
    nProcsSimpleSum    : 0
    commsType          : nonBlocking
    polling iterations : 0
sigFpe : Enabling floating point exception trapping (FOAM_SIGFPE).
fileModificationChecking : Monitoring run-time modified files using timeStampMaster
allowSystemOperations : Disallowing user-supplied system call operations

// * * * * * * * * * * * * * * * * * * * * * * * * * * * * * * * * * * * * * //
Create time

Create mesh for time = 0

Selecting dynamicFvMesh multipleLayeringFvMesh
Selecting solid-body motion function oscillatingLinearMotion
solidBodyMotionFunctions::oscillatingLinearMotion::transformation(): Time = 0 transformation: ((0 0 0) (1 (0 0 0)))
Selecting solid-body motion function oscillatingCosLinearMotion
solidBodyMotionFunctions::oscillatingCosLinearMotion::transformation(): Time = 0 transformation: ((0.3 0 0) (1 (0 0 0)))
Updating vertex markup
Adding 8 mesh modifiers
Reading field T

Reading field U

Reading transportProperties

Reading diffusivity DT

Reading/calculating face flux field phi

No finite volume options present


SIMPLE: no convergence criteria found. Calculations will run for 1 steps.


Calculating scalar transport

Courant Number mean: 0 max: 0
Time = 0.000663155

Second Layer height0.005
Valor de addLayerFactor_5.20417e-16
Updating vertex markup
solidBodyMotionFunctions::oscillatingLinearMotion::transformation(): Time = 0.000663155 transformation: ((0 0.00125 0) (1 (0 0 0)))
Executing mesh motion with velocity ((0 1.88492 0) (0 (0 0 0)))  and dt:0.000663155
Updating vertex markup
solidBodyMotionFunctions::oscillatingCosLinearMotion::transformation(): Time = 0.000663155 transformation: ((0.299997 0 0) (1 (0 0 0)))
Executing mesh motion with velocity ((-0.00392693 0 0) (0 (0 0 0)))  and dt:0.000663155
Second Layer height0.005
Valor de addLayerFactor_-0.000521104
Updating vertex markup
solidBodyMotionFunctions::oscillatingLinearMotion::transformation(): Time = 0.000663155 transformation: ((0 0.00125 0) (1 (0 0 0)))
Executing mesh motion with velocity ((0 0 0) (0 (0 0 0)))  and dt:0.000663155
Updating vertex markup
solidBodyMotionFunctions::oscillatingCosLinearMotion::transformation(): Time = 0.000663155 transformation: ((0.299997 0 0) (1 (0 0 0)))
Executing mesh motion with velocity ((0 0 0) (0 (0 0 0)))  and dt:0.000663155
DILUPBiCG:  Solving for T, Initial residual = 1, Final residual = 5.88412e-08, No Iterations 41
ExecutionTime = 0.21 s
ClockTime = 0 s

Time = 0.00132631

Second Layer height0.005
Valor de addLayerFactor_0.2
Updating vertex markup
solidBodyMotionFunctions::oscillatingLinearMotion::transformation(): Time = 0.00132631 transformation: ((0 0.00249997 0) (1 (0 0 0)))
Executing mesh motion with velocity ((0 1.88489 0) (0 (0 0 0)))  and dt:0.000663155
Updating vertex markup
solidBodyMotionFunctions::oscillatingCosLinearMotion::transformation(): Time = 0.00132631 transformation: ((0.29999 0 0) (1 (0 0 0)))
Executing mesh motion with velocity ((-0.0117807 0 0) (0 (0 0 0)))  and dt:0.000663155
Second Layer height0.005
Valor de addLayerFactor_-0.00208767
Updating vertex markup
solidBodyMotionFunctions::oscillatingLinearMotion::transformation(): Time = 0.00132631 transformation: ((0 0.00249997 0) (1 (0 0 0)))
Executing mesh motion with velocity ((0 0 0) (0 (0 0 0)))  and dt:0.000663155
Updating vertex markup
solidBodyMotionFunctions::oscillatingCosLinearMotion::transformation(): Time = 0.00132631 transformation: ((0.29999 0 0) (1 (0 0 0)))
Executing mesh motion with velocity ((0 0 0) (0 (0 0 0)))  and dt:0.000663155
DILUPBiCG:  Solving for T, Initial residual = 0.0426476, Final residual = 9.31008e-09, No Iterations 41
ExecutionTime = 0.29 s
ClockTime = 0 s

Time = 0.00198946

Second Layer height0.005
Valor de addLayerFactor_0.333331
Updating vertex markup
solidBodyMotionFunctions::oscillatingLinearMotion::transformation(): Time = 0.00198946 transformation: ((0 0.0037499 0) (1 (0 0 0)))
Executing mesh motion with velocity ((0 1.88483 0) (0 (0 0 0)))  and dt:0.000663155
Updating vertex markup
solidBodyMotionFunctions::oscillatingCosLinearMotion::transformation(): Time = 0.00198946 transformation: ((0.299977 0 0) (1 (0 0 0)))
Executing mesh motion with velocity ((-0.0196343 0 0) (0 (0 0 0)))  and dt:0.000663155
Second Layer height0.005
Valor de addLayerFactor_-0.00470951
Updating vertex markup
solidBodyMotionFunctions::oscillatingLinearMotion::transformation(): Time = 0.00198946 transformation: ((0 0.0037499 0) (1 (0 0 0)))
Executing mesh motion with velocity ((0 0 0) (0 (0 0 0)))  and dt:0.000663155
Updating vertex markup
solidBodyMotionFunctions::oscillatingCosLinearMotion::transformation(): Time = 0.00198946 transformation: ((0.299977 0 0) (1 (0 0 0)))
Executing mesh motion with velocity ((0 0 0) (0 (0 0 0)))  and dt:0.000663155
DILUPBiCG:  Solving for T, Initial residual = 0.0198298, Final residual = 3.6335e-09, No Iterations 41
ExecutionTime = 0.36 s
ClockTime = 0 s

Time = 0.00265262

Second Layer height0.005
Valor de addLayerFactor_0.428565
Vector de cara a agregar: (0.00437495 0 0) Vector de faceZone: (0.005 0 0)
Vector de cara a agregar: (0.00437495 0 0) Vector de faceZone: (0.005 0 0)
Local Topology change. Calculating premotion points
Updating vertex markup
solidBodyMotionFunctions::oscillatingLinearMotion::transformation(): Time = 0.00265262 transformation: ((0 0.00499977 0) (1 (0 0 0)))
Executing mesh motion with velocity ((0 1.88473 0) (0 (0 0 0)))  and dt:0.000663155
Updating vertex markup
solidBodyMotionFunctions::oscillatingCosLinearMotion::transformation(): Time = 0.00265262 transformation: ((0.299958 0 0) (1 (0 0 0)))
Executing mesh motion with velocity ((-0.0274876 0 0) (0 (0 0 0)))  and dt:0.000663155
Second Layer height0.005
Valor de addLayerFactor_-0.00840317
Updating vertex markup
solidBodyMotionFunctions::oscillatingLinearMotion::transformation(): Time = 0.00265262 transformation: ((0 0.00499977 0) (1 (0 0 0)))
Executing mesh motion with velocity ((0 0 0) (0 (0 0 0)))  and dt:0.000663155
Updating vertex markup
solidBodyMotionFunctions::oscillatingCosLinearMotion::transformation(): Time = 0.00265262 transformation: ((0.299958 0 0) (1 (0 0 0)))
Executing mesh motion with velocity ((0 0 0) (0 (0 0 0)))  and dt:0.000663155
DILUPBiCG:  Solving for T, Initial residual = 0.0141222, Final residual = 2.04697e-09, No Iterations 41
ExecutionTime = 0.54 s
ClockTime = 0 s

Time = 0.00331577

Second Layer height0.005
Valor de addLayerFactor_-4.62977e-05
Updating vertex markup
solidBodyMotionFunctions::oscillatingLinearMotion::transformation(): Time = 0.00331577 transformation: ((0 0.00624955 0) (1 (0 0 0)))
Executing mesh motion with velocity ((0 1.8846 0) (0 (0 0 0)))  and dt:0.000663155
Updating vertex markup
solidBodyMotionFunctions::oscillatingCosLinearMotion::transformation(): Time = 0.00331577 transformation: ((0.299935 0 0) (1 (0 0 0)))
Executing mesh motion with velocity ((-0.0353403 0 0) (0 (0 0 0)))  and dt:0.000663155
Second Layer height0.005
Valor de addLayerFactor_-0.0131921
Updating vertex markup
solidBodyMotionFunctions::oscillatingLinearMotion::transformation(): Time = 0.00331577 transformation: ((0 0.00624955 0) (1 (0 0 0)))
Executing mesh motion with velocity ((0 0 0) (0 (0 0 0)))  and dt:0.000663155
Updating vertex markup
solidBodyMotionFunctions::oscillatingCosLinearMotion::transformation(): Time = 0.00331577 transformation: ((0.299935 0 0) (1 (0 0 0)))
Executing mesh motion with velocity ((0 0 0) (0 (0 0 0)))  and dt:0.000663155
DILUPBiCG:  Solving for T, Initial residual = 0.0113481, Final residual = 1.27566e-09, No Iterations 41
ExecutionTime = 0.62 s
ClockTime = 1 s

Time = 0.00397893

Second Layer height0.005
Valor de addLayerFactor_0.199942
Updating vertex markup
solidBodyMotionFunctions::oscillatingLinearMotion::transformation(): Time = 0.00397893 transformation: ((0 0.00749922 0) (1 (0 0 0)))
Executing mesh motion with velocity ((0 1.88443 0) (0 (0 0 0)))  and dt:0.000663155
Updating vertex markup
solidBodyMotionFunctions::oscillatingCosLinearMotion::transformation(): Time = 0.00397893 transformation: ((0.299906 0 0) (1 (0 0 0)))
Executing mesh motion with velocity ((-0.0431925 0 0) (0 (0 0 0)))  and dt:0.000663155
Second Layer height0.005
Valor de addLayerFactor_-0.0191073
Updating vertex markup
solidBodyMotionFunctions::oscillatingLinearMotion::transformation(): Time = 0.00397893 transformation: ((0 0.00749922 0) (1 (0 0 0)))
Executing mesh motion with velocity ((0 0 0) (0 (0 0 0)))  and dt:0.000663155
Updating vertex markup
solidBodyMotionFunctions::oscillatingCosLinearMotion::transformation(): Time = 0.00397893 transformation: ((0.299906 0 0) (1 (0 0 0)))
Executing mesh motion with velocity ((0 0 0) (0 (0 0 0)))  and dt:0.000663155
DILUPBiCG:  Solving for T, Initial residual = 0.00964795, Final residual = 8.89585e-10, No Iterations 41
ExecutionTime = 0.69 s
ClockTime = 1 s

Time = 0.00464208

Second Layer height0.005
Valor de addLayerFactor_0.333264
Updating vertex markup
solidBodyMotionFunctions::oscillatingLinearMotion::transformation(): Time = 0.00464208 transformation: ((0 0.00874876 0) (1 (0 0 0)))
Executing mesh motion with velocity ((0 1.88424 0) (0 (0 0 0)))  and dt:0.000663155
Updating vertex markup
solidBodyMotionFunctions::oscillatingCosLinearMotion::transformation(): Time = 0.00464208 transformation: ((0.299872 0 0) (1 (0 0 0)))
Executing mesh motion with velocity ((-0.0510439 0 0) (0 (0 0 0)))  and dt:0.000663155
Second Layer height0.005
Valor de addLayerFactor_-0.0261873
Updating vertex markup
solidBodyMotionFunctions::oscillatingLinearMotion::transformation(): Time = 0.00464208 transformation: ((0 0.00874876 0) (1 (0 0 0)))
Executing mesh motion with velocity ((0 0 0) (0 (0 0 0)))  and dt:0.000663155
Updating vertex markup
solidBodyMotionFunctions::oscillatingCosLinearMotion::transformation(): Time = 0.00464208 transformation: ((0.299872 0 0) (1 (0 0 0)))
Executing mesh motion with velocity ((0 0 0) (0 (0 0 0)))  and dt:0.000663155
DILUPBiCG:  Solving for T, Initial residual = 0.0084776, Final residual = 6.90395e-10, No Iterations 41
ExecutionTime = 0.77 s
ClockTime = 1 s

Time = 0.00530524

Second Layer height0.005
Valor de addLayerFactor_0.42849
Vector de cara a agregar: (0.00437438 0 0) Vector de faceZone: (0.005 0 0)
Vector de cara a agregar: (0.00437438 0 0) Vector de faceZone: (0.005 0 0)
Local Topology change. Calculating premotion points
Updating vertex markup
solidBodyMotionFunctions::oscillatingLinearMotion::transformation(): Time = 0.00530524 transformation: ((0 0.00999815 0) (1 (0 0 0)))
Executing mesh motion with velocity ((0 1.88401 0) (0 (0 0 0)))  and dt:0.000663155
Updating vertex markup
solidBodyMotionFunctions::oscillatingCosLinearMotion::transformation(): Time = 0.00530524 transformation: ((0.299833 0 0) (1 (0 0 0)))
Executing mesh motion with velocity ((-0.0588944 0 0) (0 (0 0 0)))  and dt:0.000663155
Second Layer height0.005
Valor de addLayerFactor_-0.0344795
Updating vertex markup
solidBodyMotionFunctions::oscillatingLinearMotion::transformation(): Time = 0.00530524 transformation: ((0 0.00999815 0) (1 (0 0 0)))
Executing mesh motion with velocity ((0 0 0) (0 (0 0 0)))  and dt:0.000663155
Updating vertex markup
solidBodyMotionFunctions::oscillatingCosLinearMotion::transformation(): Time = 0.00530524 transformation: ((0.299833 0 0) (1 (0 0 0)))
Executing mesh motion with velocity ((0 0 0) (0 (0 0 0)))  and dt:0.000663155
DILUPBiCG:  Solving for T, Initial residual = 0.00761514, Final residual = 6.39448e-10, No Iterations 41
ExecutionTime = 0.95 s
ClockTime = 1 s

Time = 0.00596839

Second Layer height0.005
Valor de addLayerFactor_-0.000370487
Updating vertex markup
solidBodyMotionFunctions::oscillatingLinearMotion::transformation(): Time = 0.00596839 transformation: ((0 0.0112474 0) (1 (0 0 0)))
Executing mesh motion with velocity ((0 1.88375 0) (0 (0 0 0)))  and dt:0.000663155
Updating vertex markup
solidBodyMotionFunctions::oscillatingCosLinearMotion::transformation(): Time = 0.00596839 transformation: ((0.299789 0 0) (1 (0 0 0)))
Executing mesh motion with velocity ((-0.0667439 0 0) (0 (0 0 0)))  and dt:0.000663155
Second Layer height0.005
Valor de addLayerFactor_-0.0440403
Updating vertex markup
solidBodyMotionFunctions::oscillatingLinearMotion::transformation(): Time = 0.00596839 transformation: ((0 0.0112474 0) (1 (0 0 0)))
Executing mesh motion with velocity ((0 0 0) (0 (0 0 0)))  and dt:0.000663155
Updating vertex markup
solidBodyMotionFunctions::oscillatingCosLinearMotion::transformation(): Time = 0.00596839 transformation: ((0.299789 0 0) (1 (0 0 0)))
Executing mesh motion with velocity ((0 0 0) (0 (0 0 0)))  and dt:0.000663155
DILUPBiCG:  Solving for T, Initial residual = 0.00694344, Final residual = 5.32623e-10, No Iterations 41
ExecutionTime = 1.03 s
ClockTime = 1 s

Time = 0.00663155

Second Layer height0.005
Valor de addLayerFactor_0.199662
Updating vertex markup
solidBodyMotionFunctions::oscillatingLinearMotion::transformation(): Time = 0.00663155 transformation: ((0 0.0124964 0) (1 (0 0 0)))
Executing mesh motion with velocity ((0 1.88345 0) (0 (0 0 0)))  and dt:0.000663155
Updating vertex markup
solidBodyMotionFunctions::oscillatingCosLinearMotion::transformation(): Time = 0.00663155 transformation: ((0.29974 0 0) (1 (0 0 0)))
Executing mesh motion with velocity ((-0.0745923 0 0) (0 (0 0 0)))  and dt:0.000663155
Second Layer height0.005
Valor de addLayerFactor_-0.0549367
Updating vertex markup
solidBodyMotionFunctions::oscillatingLinearMotion::transformation(): Time = 0.00663155 transformation: ((0 0.0124964 0) (1 (0 0 0)))
Executing mesh motion with velocity ((0 0 0) (0 (0 0 0)))  and dt:0.000663155
Updating vertex markup
solidBodyMotionFunctions::oscillatingCosLinearMotion::transformation(): Time = 0.00663155 transformation: ((0.29974 0 0) (1 (0 0 0)))
Executing mesh motion with velocity ((0 0 0) (0 (0 0 0)))  and dt:0.000663155
DILUPBiCG:  Solving for T, Initial residual = 0.00640606, Final residual = 4.58629e-10, No Iterations 41
ExecutionTime = 1.1 s
ClockTime = 1 s

Time = 0.0072947

Second Layer height0.005
Valor de addLayerFactor_0.333012
Updating vertex markup
solidBodyMotionFunctions::oscillatingLinearMotion::transformation(): Time = 0.0072947 transformation: ((0 0.0137452 0) (1 (0 0 0)))
Executing mesh motion with velocity ((0 1.88312 0) (0 (0 0 0)))  and dt:0.000663155
Updating vertex markup
solidBodyMotionFunctions::oscillatingCosLinearMotion::transformation(): Time = 0.0072947 transformation: ((0.299685 0 0) (1 (0 0 0)))
Executing mesh motion with velocity ((-0.0824393 0 0) (0 (0 0 0)))  and dt:0.000663155
Second Layer height0.005
Valor de addLayerFactor_-0.067247
Updating vertex markup
solidBodyMotionFunctions::oscillatingLinearMotion::transformation(): Time = 0.0072947 transformation: ((0 0.0137452 0) (1 (0 0 0)))
Executing mesh motion with velocity ((0 0 0) (0 (0 0 0)))  and dt:0.000663155
Updating vertex markup
solidBodyMotionFunctions::oscillatingCosLinearMotion::transformation(): Time = 0.0072947 transformation: ((0.299685 0 0) (1 (0 0 0)))
Executing mesh motion with velocity ((0 0 0) (0 (0 0 0)))  and dt:0.000663155
DILUPBiCG:  Solving for T, Initial residual = 0.00596356, Final residual = 4.15015e-10, No Iterations 41
ExecutionTime = 1.18 s
ClockTime = 1 s

Time = 0.00795786

Second Layer height0.005
Valor de addLayerFactor_0.428257
Vector de cara a agregar: (0.00437259 0 0) Vector de faceZone: (0.005 0 0)
Vector de cara a agregar: (0.00437259 0 0) Vector de faceZone: (0.005 0 0)
Local Topology change. Calculating premotion points
Updating vertex markup
solidBodyMotionFunctions::oscillatingLinearMotion::transformation(): Time = 0.00795786 transformation: ((0 0.0149938 0) (1 (0 0 0)))
Executing mesh motion with velocity ((0 1.88277 0) (0 (0 0 0)))  and dt:0.000663155
Updating vertex markup
solidBodyMotionFunctions::oscillatingCosLinearMotion::transformation(): Time = 0.00795786 transformation: ((0.299625 0 0) (1 (0 0 0)))
Executing mesh motion with velocity ((-0.0902849 0 0) (0 (0 0 0)))  and dt:0.000663155
Second Layer height0.005
Valor de addLayerFactor_-0.0810628
Updating vertex markup
solidBodyMotionFunctions::oscillatingLinearMotion::transformation(): Time = 0.00795786 transformation: ((0 0.0149938 0) (1 (0 0 0)))
Executing mesh motion with velocity ((0 0 0) (0 (0 0 0)))  and dt:0.000663155
Updating vertex markup
solidBodyMotionFunctions::oscillatingCosLinearMotion::transformation(): Time = 0.00795786 transformation: ((0.299625 0 0) (1 (0 0 0)))
Executing mesh motion with velocity ((0 0 0) (0 (0 0 0)))  and dt:0.000663155
DILUPBiCG:  Solving for T, Initial residual = 0.00560448, Final residual = 4.40526e-10, No Iterations 41
ExecutionTime = 1.36 s
ClockTime = 1 s

Time = 0.00862101

Second Layer height0.005
Valor de addLayerFactor_-0.00125141
Updating vertex markup
solidBodyMotionFunctions::oscillatingLinearMotion::transformation(): Time = 0.00862101 transformation: ((0 0.0162421 0) (1 (0 0 0)))
Executing mesh motion with velocity ((0 1.88237 0) (0 (0 0 0)))  and dt:0.000663155
Updating vertex markup
solidBodyMotionFunctions::oscillatingCosLinearMotion::transformation(): Time = 0.00862101 transformation: ((0.29956 0 0) (1 (0 0 0)))
Executing mesh motion with velocity ((-0.098129 0 0) (0 (0 0 0)))  and dt:0.000663155
Second Layer height0.005
Valor de addLayerFactor_-0.0964904
Updating vertex markup
solidBodyMotionFunctions::oscillatingLinearMotion::transformation(): Time = 0.00862101 transformation: ((0 0.0162421 0) (1 (0 0 0)))
Executing mesh motion with velocity ((0 0 0) (0 (0 0 0)))  and dt:0.000663155
Updating vertex markup
solidBodyMotionFunctions::oscillatingCosLinearMotion::transformation(): Time = 0.00862101 transformation: ((0.29956 0 0) (1 (0 0 0)))
Executing mesh motion with velocity ((0 0 0) (0 (0 0 0)))  and dt:0.000663155
DILUPBiCG:  Solving for T, Initial residual = 0.00527524, Final residual = 3.76263e-10, No Iterations 41
ExecutionTime = 1.44 s
ClockTime = 1 s

Time = 0.00928416

Second Layer height0.005
Valor de addLayerFactor_0.198982
Updating vertex markup
solidBodyMotionFunctions::oscillatingLinearMotion::transformation(): Time = 0.00928416 transformation: ((0 0.0174901 0) (1 (0 0 0)))
Executing mesh motion with velocity ((0 1.88195 0) (0 (0 0 0)))  and dt:0.000663155
Updating vertex markup
solidBodyMotionFunctions::oscillatingCosLinearMotion::transformation(): Time = 0.00928416 transformation: ((0.29949 0 0) (1 (0 0 0)))
Executing mesh motion with velocity ((-0.105971 0 0) (0 (0 0 0)))  and dt:0.000663155
Second Layer height0.005
Valor de addLayerFactor_-0.113653
Updating vertex markup
solidBodyMotionFunctions::oscillatingLinearMotion::transformation(): Time = 0.00928416 transformation: ((0 0.0174901 0) (1 (0 0 0)))
Executing mesh motion with velocity ((0 0 0) (0 (0 0 0)))  and dt:0.000663155
Updating vertex markup
solidBodyMotionFunctions::oscillatingCosLinearMotion::transformation(): Time = 0.00928416 transformation: ((0.29949 0 0) (1 (0 0 0)))
Executing mesh motion with velocity ((0 0 0) (0 (0 0 0)))  and dt:0.000663155
DILUPBiCG:  Solving for T, Initial residual = 0.00499895, Final residual = 3.29604e-10, No Iterations 41
ExecutionTime = 1.52 s
ClockTime = 1 s

Time = 0.00994732

Second Layer height0.005
Valor de addLayerFactor_0.33245
Updating vertex markup
solidBodyMotionFunctions::oscillatingLinearMotion::transformation(): Time = 0.00994732 transformation: ((0 0.0187378 0) (1 (0 0 0)))
Executing mesh motion with velocity ((0 1.88149 0) (0 (0 0 0)))  and dt:0.000663155
Updating vertex markup
solidBodyMotionFunctions::oscillatingCosLinearMotion::transformation(): Time = 0.00994732 transformation: ((0.299414 0 0) (1 (0 0 0)))
Executing mesh motion with velocity ((-0.113812 0 0) (0 (0 0 0)))  and dt:0.000663155
Second Layer height0.005
Valor de addLayerFactor_-0.132694
Updating vertex markup
solidBodyMotionFunctions::oscillatingLinearMotion::transformation(): Time = 0.00994732 transformation: ((0 0.0187378 0) (1 (0 0 0)))
Executing mesh motion with velocity ((0 0 0) (0 (0 0 0)))  and dt:0.000663155
Updating vertex markup
solidBodyMotionFunctions::oscillatingCosLinearMotion::transformation(): Time = 0.00994732 transformation: ((0.299414 0 0) (1 (0 0 0)))
Executing mesh motion with velocity ((0 0 0) (0 (0 0 0)))  and dt:0.000663155
DILUPBiCG:  Solving for T, Initial residual = 0.00475751, Final residual = 3.05713e-10, No Iterations 41
ExecutionTime = 1.6 s
ClockTime = 1 s

Time = 0.0106105

Second Layer height0.005
Valor de addLayerFactor_0.427773
Vector de cara a agregar: (0.0043689 0 0) Vector de faceZone: (0.005 0 0)
Vector de cara a agregar: (0.0043689 0 0) Vector de faceZone: (0.005 0 0)
Local Topology change. Calculating premotion points
Updating vertex markup
solidBodyMotionFunctions::oscillatingLinearMotion::transformation(): Time = 0.0106105 transformation: ((0 0.0199852 0) (1 (0 0 0)))
Executing mesh motion with velocity ((0 1.881 0) (0 (0 0 0)))  and dt:0.000663155
Updating vertex markup
solidBodyMotionFunctions::oscillatingCosLinearMotion::transformation(): Time = 0.0106105 transformation: ((0.299334 0 0) (1 (0 0 0)))
Executing mesh motion with velocity ((-0.12165 0 0) (0 (0 0 0)))  and dt:0.000663155
Second Layer height0.005
Valor de addLayerFactor_-0.15378
Updating vertex markup
solidBodyMotionFunctions::oscillatingLinearMotion::transformation(): Time = 0.0106105 transformation: ((0 0.0199852 0) (1 (0 0 0)))
Executing mesh motion with velocity ((0 0 0) (0 (0 0 0)))  and dt:0.000663155
Updating vertex markup
solidBodyMotionFunctions::oscillatingCosLinearMotion::transformation(): Time = 0.0106105 transformation: ((0.299334 0 0) (1 (0 0 0)))
Executing mesh motion with velocity ((0 0 0) (0 (0 0 0)))  and dt:0.000663155
DILUPBiCG:  Solving for T, Initial residual = 0.0045818, Final residual = 3.68787e-10, No Iterations 41
ExecutionTime = 1.77 s
ClockTime = 2 s

Time = 0.0112736

Second Layer height0.005
Valor de addLayerFactor_-0.00297111
Updating vertex markup
solidBodyMotionFunctions::oscillatingLinearMotion::transformation(): Time = 0.0112736 transformation: ((0 0.0212322 0) (1 (0 0 0)))
Executing mesh motion with velocity ((0 1.88048 0) (0 (0 0 0)))  and dt:0.000663155
Updating vertex markup
solidBodyMotionFunctions::oscillatingCosLinearMotion::transformation(): Time = 0.0112736 transformation: ((0.299248 0 0) (1 (0 0 0)))
Executing mesh motion with velocity ((-0.129487 0 0) (0 (0 0 0)))  and dt:0.000663155
Second Layer height0.005
Valor de addLayerFactor_-0.177105
Updating vertex markup
solidBodyMotionFunctions::oscillatingLinearMotion::transformation(): Time = 0.0112736 transformation: ((0 0.0212322 0) (1 (0 0 0)))
Executing mesh motion with velocity ((0 0 0) (0 (0 0 0)))  and dt:0.000663155
Updating vertex markup
solidBodyMotionFunctions::oscillatingCosLinearMotion::transformation(): Time = 0.0112736 transformation: ((0.299248 0 0) (1 (0 0 0)))
Executing mesh motion with velocity ((0 0 0) (0 (0 0 0)))  and dt:0.000663155
DILUPBiCG:  Solving for T, Initial residual = 0.00435755, Final residual = 3.20275e-10, No Iterations 41
ExecutionTime = 1.85 s
ClockTime = 2 s

Time = 0.0119368

Second Layer height0.005
Valor de addLayerFactor_0.19772
Updating vertex markup
solidBodyMotionFunctions::oscillatingLinearMotion::transformation(): Time = 0.0119368 transformation: ((0 0.0224789 0) (1 (0 0 0)))
Executing mesh motion with velocity ((0 1.87992 0) (0 (0 0 0)))  and dt:0.000663155
Updating vertex markup
solidBodyMotionFunctions::oscillatingCosLinearMotion::transformation(): Time = 0.0119368 transformation: ((0.299157 0 0) (1 (0 0 0)))
Executing mesh motion with velocity ((-0.137321 0 0) (0 (0 0 0)))  and dt:0.000663155
Second Layer height0.005
Valor de addLayerFactor_-0.202893
Updating vertex markup
solidBodyMotionFunctions::oscillatingLinearMotion::transformation(): Time = 0.0119368 transformation: ((0 0.0224789 0) (1 (0 0 0)))
Executing mesh motion with velocity ((0 0 0) (0 (0 0 0)))  and dt:0.000663155
Updating vertex markup
solidBodyMotionFunctions::oscillatingCosLinearMotion::transformation(): Time = 0.0119368 transformation: ((0.299157 0 0) (1 (0 0 0)))
Executing mesh motion with velocity ((0 0 0) (0 (0 0 0)))  and dt:0.000663155
DILUPBiCG:  Solving for T, Initial residual = 0.00418399, Final residual = 2.86968e-10, No Iterations 41
ExecutionTime = 1.93 s
ClockTime = 2 s

Time = 0.0125999

Second Layer height0.005
Valor de addLayerFactor_0.331454
Updating vertex markup
solidBodyMotionFunctions::oscillatingLinearMotion::transformation(): Time = 0.0125999 transformation: ((0 0.0237252 0) (1 (0 0 0)))
Executing mesh motion with velocity ((0 1.87933 0) (0 (0 0 0)))  and dt:0.000663155
Updating vertex markup
solidBodyMotionFunctions::oscillatingCosLinearMotion::transformation(): Time = 0.0125999 transformation: ((0.29906 0 0) (1 (0 0 0)))
Executing mesh motion with velocity ((-0.145153 0 0) (0 (0 0 0)))  and dt:0.000663155
Second Layer height0.005
Valor de addLayerFactor_-0.23141
Updating vertex markup
solidBodyMotionFunctions::oscillatingLinearMotion::transformation(): Time = 0.0125999 transformation: ((0 0.0237252 0) (1 (0 0 0)))
Executing mesh motion with velocity ((0 0 0) (0 (0 0 0)))  and dt:0.000663155
Updating vertex markup
solidBodyMotionFunctions::oscillatingCosLinearMotion::transformation(): Time = 0.0125999 transformation: ((0.29906 0 0) (1 (0 0 0)))
Executing mesh motion with velocity ((0 0 0) (0 (0 0 0)))  and dt:0.000663155
DILUPBiCG:  Solving for T, Initial residual = 0.00402891, Final residual = 2.77811e-10, No Iterations 41
ExecutionTime = 2.01 s
ClockTime = 2 s

Time = 0.0132631

Second Layer height0.005
Valor de addLayerFactor_0.426947
Vector de cara a agregar: (0.0043626 0 0) Vector de faceZone: (0.005 0 0)
Vector de cara a agregar: (0.0043626 0 0) Vector de faceZone: (0.005 0 0)
Local Topology change. Calculating premotion points
Updating vertex markup
solidBodyMotionFunctions::oscillatingLinearMotion::transformation(): Time = 0.0132631 transformation: ((0 0.0249711 0) (1 (0 0 0)))
Executing mesh motion with velocity ((0 1.87871 0) (0 (0 0 0)))  and dt:0.000663155
Updating vertex markup
solidBodyMotionFunctions::oscillatingCosLinearMotion::transformation(): Time = 0.0132631 transformation: ((0.298959 0 0) (1 (0 0 0)))
Executing mesh motion with velocity ((-0.152982 0 0) (0 (0 0 0)))  and dt:0.000663155
Second Layer height0.005
Valor de addLayerFactor_-0.262966
Updating vertex markup
solidBodyMotionFunctions::oscillatingLinearMotion::transformation(): Time = 0.0132631 transformation: ((0 0.0249711 0) (1 (0 0 0)))
Executing mesh motion with velocity ((0 0 0) (0 (0 0 0)))  and dt:0.000663155
Updating vertex markup
solidBodyMotionFunctions::oscillatingCosLinearMotion::transformation(): Time = 0.0132631 transformation: ((0.298959 0 0) (1 (0 0 0)))
Executing mesh motion with velocity ((0 0 0) (0 (0 0 0)))  and dt:0.000663155
DILUPBiCG:  Solving for T, Initial residual = 0.00396256, Final residual = 3.1916e-10, No Iterations 41
ExecutionTime = 2.29 s
ClockTime = 2 s

Time = 0.0139262

Second Layer height0.005
Valor de addLayerFactor_-0.00581869
Updating vertex markup
solidBodyMotionFunctions::oscillatingLinearMotion::transformation(): Time = 0.0139262 transformation: ((0 0.0262165 0) (1 (0 0 0)))
Executing mesh motion with velocity ((0 1.87806 0) (0 (0 0 0)))  and dt:0.000663155
Updating vertex markup
solidBodyMotionFunctions::oscillatingCosLinearMotion::transformation(): Time = 0.0139262 transformation: ((0.298852 0 0) (1 (0 0 0)))
Executing mesh motion with velocity ((-0.160809 0 0) (0 (0 0 0)))  and dt:0.000663155
Second Layer height0.005
Valor de addLayerFactor_-0.297928
Updating vertex markup
solidBodyMotionFunctions::oscillatingLinearMotion::transformation(): Time = 0.0139262 transformation: ((0 0.0262165 0) (1 (0 0 0)))
Executing mesh motion with velocity ((0 0 0) (0 (0 0 0)))  and dt:0.000663155
Updating vertex markup
solidBodyMotionFunctions::oscillatingCosLinearMotion::transformation(): Time = 0.0139262 transformation: ((0.298852 0 0) (1 (0 0 0)))
Executing mesh motion with velocity ((0 0 0) (0 (0 0 0)))  and dt:0.000663155
DILUPBiCG:  Solving for T, Initial residual = 0.00376635, Final residual = 2.93635e-10, No Iterations 41
ExecutionTime = 2.38 s
ClockTime = 2 s

Time = 0.0145894

Second Layer height0.005
Valor de addLayerFactor_0.195691
Updating vertex markup
solidBodyMotionFunctions::oscillatingLinearMotion::transformation(): Time = 0.0145894 transformation: ((0 0.0274615 0) (1 (0 0 0)))
Executing mesh motion with velocity ((0 1.87737 0) (0 (0 0 0)))  and dt:0.000663155
Updating vertex markup
solidBodyMotionFunctions::oscillatingCosLinearMotion::transformation(): Time = 0.0145894 transformation: ((0.29874 0 0) (1 (0 0 0)))
Executing mesh motion with velocity ((-0.168632 0 0) (0 (0 0 0)))  and dt:0.000663155
Second Layer height0.005
Valor de addLayerFactor_-0.336732
Updating vertex markup
solidBodyMotionFunctions::oscillatingLinearMotion::transformation(): Time = 0.0145894 transformation: ((0 0.0274615 0) (1 (0 0 0)))
Executing mesh motion with velocity ((0 0 0) (0 (0 0 0)))  and dt:0.000663155
Updating vertex markup
solidBodyMotionFunctions::oscillatingCosLinearMotion::transformation(): Time = 0.0145894 transformation: ((0.29874 0 0) (1 (0 0 0)))
Executing mesh motion with velocity ((0 0 0) (0 (0 0 0)))  and dt:0.000663155
DILUPBiCG:  Solving for T, Initial residual = 0.00364377, Final residual = 2.94089e-10, No Iterations 41
ExecutionTime = 2.46 s
ClockTime = 2 s

Time = 0.0152526

Second Layer height0.005
Valor de addLayerFactor_0.329894
Updating vertex markup
solidBodyMotionFunctions::oscillatingLinearMotion::transformation(): Time = 0.0152526 transformation: ((0 0.028706 0) (1 (0 0 0)))
Executing mesh motion with velocity ((0 1.87665 0) (0 (0 0 0)))  and dt:0.000663155
Updating vertex markup
solidBodyMotionFunctions::oscillatingCosLinearMotion::transformation(): Time = 0.0152526 transformation: ((0.298623 0 0) (1 (0 0 0)))
Executing mesh motion with velocity ((-0.176453 0 0) (0 (0 0 0)))  and dt:0.000663155
Second Layer height0.005
Valor de addLayerFactor_-0.3799
Updating vertex markup
solidBodyMotionFunctions::oscillatingLinearMotion::transformation(): Time = 0.0152526 transformation: ((0 0.028706 0) (1 (0 0 0)))
Executing mesh motion with velocity ((0 0 0) (0 (0 0 0)))  and dt:0.000663155
Updating vertex markup
solidBodyMotionFunctions::oscillatingCosLinearMotion::transformation(): Time = 0.0152526 transformation: ((0.298623 0 0) (1 (0 0 0)))
Executing mesh motion with velocity ((0 0 0) (0 (0 0 0)))  and dt:0.000663155
DILUPBiCG:  Solving for T, Initial residual = 0.00353448, Final residual = 3.0937e-10, No Iterations 41
ExecutionTime = 2.54 s
ClockTime = 3 s

Time = 0.0159157

Second Layer height0.005
Valor de addLayerFactor_0.425684
Vector de cara a agregar: (0.00435301 0 0) Vector de faceZone: (0.005 0 0)
Vector de cara a agregar: (0.00435301 0 0) Vector de faceZone: (0.005 0 0)
Local Topology change. Calculating premotion points
Updating vertex markup
solidBodyMotionFunctions::oscillatingLinearMotion::transformation(): Time = 0.0159157 transformation: ((0 0.02995 0) (1 (0 0 0)))
Executing mesh motion with velocity ((0 1.8759 0) (0 (0 0 0)))  and dt:0.000663155
Updating vertex markup
solidBodyMotionFunctions::oscillatingCosLinearMotion::transformation(): Time = 0.0159157 transformation: ((0.298501 0 0) (1 (0 0 0)))
Executing mesh motion with velocity ((-0.184271 0 0) (0 (0 0 0)))  and dt:0.000663155
Second Layer height0.005
Valor de addLayerFactor_-0.428062
Updating vertex markup
solidBodyMotionFunctions::oscillatingLinearMotion::transformation(): Time = 0.0159157 transformation: ((0 0.02995 0) (1 (0 0 0)))
Executing mesh motion with velocity ((0 0 0) (0 (0 0 0)))  and dt:0.000663155
Updating vertex markup
solidBodyMotionFunctions::oscillatingCosLinearMotion::transformation(): Time = 0.0159157 transformation: ((0.298501 0 0) (1 (0 0 0)))
Executing mesh motion with velocity ((0 0 0) (0 (0 0 0)))  and dt:0.000663155
DILUPBiCG:  Solving for T, Initial residual = 0.00355128, Final residual = 2.92469e-10, No Iterations 41
ExecutionTime = 2.72 s
ClockTime = 3 s

Time = 0.0165789

Second Layer height0.005
Valor de addLayerFactor_-0.0100959
Updating vertex markup
solidBodyMotionFunctions::oscillatingLinearMotion::transformation(): Time = 0.0165789 transformation: ((0 0.0311935 0) (1 (0 0 0)))
Executing mesh motion with velocity ((0 1.87512 0) (0 (0 0 0)))  and dt:0.000663155
Updating vertex markup
solidBodyMotionFunctions::oscillatingCosLinearMotion::transformation(): Time = 0.0165789 transformation: ((0.298374 0 0) (1 (0 0 0)))
Executing mesh motion with velocity ((-0.192086 0 0) (0 (0 0 0)))  and dt:0.000663155
Second Layer height0.005
Valor de addLayerFactor_-0.481979
Updating vertex markup
solidBodyMotionFunctions::oscillatingLinearMotion::transformation(): Time = 0.0165789 transformation: ((0 0.0311935 0) (1 (0 0 0)))
Executing mesh motion with velocity ((0 0 0) (0 (0 0 0)))  and dt:0.000663155
Updating vertex markup
solidBodyMotionFunctions::oscillatingCosLinearMotion::transformation(): Time = 0.0165789 transformation: ((0.298374 0 0) (1 (0 0 0)))
Executing mesh motion with velocity ((0 0 0) (0 (0 0 0)))  and dt:0.000663155
DILUPBiCG:  Solving for T, Initial residual = 0.00335012, Final residual = 2.84075e-10, No Iterations 41
ExecutionTime = 2.81 s
ClockTime = 3 s

Time = 0.017242

Second Layer height0.005
Valor de addLayerFactor_0.192704
Updating vertex markup
solidBodyMotionFunctions::oscillatingLinearMotion::transformation(): Time = 0.017242 transformation: ((0 0.0324365 0) (1 (0 0 0)))
Executing mesh motion with velocity ((0 1.8743 0) (0 (0 0 0)))  and dt:0.000663155
Updating vertex markup
solidBodyMotionFunctions::oscillatingCosLinearMotion::transformation(): Time = 0.017242 transformation: ((0.298241 0 0) (1 (0 0 0)))
Executing mesh motion with velocity ((-0.199897 0 0) (0 (0 0 0)))  and dt:0.000663155
Second Layer height0.005
Valor de addLayerFactor_-0.542589
Updating vertex markup
solidBodyMotionFunctions::oscillatingLinearMotion::transformation(): Time = 0.017242 transformation: ((0 0.0324365 0) (1 (0 0 0)))
Executing mesh motion with velocity ((0 0 0) (0 (0 0 0)))  and dt:0.000663155
Updating vertex markup
solidBodyMotionFunctions::oscillatingCosLinearMotion::transformation(): Time = 0.017242 transformation: ((0.298241 0 0) (1 (0 0 0)))
Executing mesh motion with velocity ((0 0 0) (0 (0 0 0)))  and dt:0.000663155
DILUPBiCG:  Solving for T, Initial residual = 0.00325636, Final residual = 3.46542e-10, No Iterations 41
ExecutionTime = 2.89 s
ClockTime = 3 s

Time = 0.0179052

Second Layer height0.005
Valor de addLayerFactor_0.327638
Updating vertex markup
solidBodyMotionFunctions::oscillatingLinearMotion::transformation(): Time = 0.0179052 transformation: ((0 0.0336789 0) (1 (0 0 0)))
Executing mesh motion with velocity ((0 1.87345 0) (0 (0 0 0)))  and dt:0.000663155
Updating vertex markup
solidBodyMotionFunctions::oscillatingCosLinearMotion::transformation(): Time = 0.0179052 transformation: ((0.298104 0 0) (1 (0 0 0)))
Executing mesh motion with velocity ((-0.207705 0 0) (0 (0 0 0)))  and dt:0.000663155
Second Layer height0.005
Valor de addLayerFactor_-0.611051
Updating vertex markup
solidBodyMotionFunctions::oscillatingLinearMotion::transformation(): Time = 0.0179052 transformation: ((0 0.0336789 0) (1 (0 0 0)))
Executing mesh motion with velocity ((0 0 0) (0 (0 0 0)))  and dt:0.000663155
Updating vertex markup
solidBodyMotionFunctions::oscillatingCosLinearMotion::transformation(): Time = 0.0179052 transformation: ((0.298104 0 0) (1 (0 0 0)))
Executing mesh motion with velocity ((0 0 0) (0 (0 0 0)))  and dt:0.000663155
DILUPBiCG:  Solving for T, Initial residual = 0.0031747, Final residual = 4.31569e-10, No Iterations 41
ExecutionTime = 2.97 s
ClockTime = 3 s

Time = 0.0185683

Second Layer height0.005
Valor de addLayerFactor_0.423887
Vector de cara a agregar: (0.00433943 0 0) Vector de faceZone: (0.005 0 0)
Vector de cara a agregar: (0.00433943 0 0) Vector de faceZone: (0.005 0 0)
Local Topology change. Calculating premotion points
Updating vertex markup
solidBodyMotionFunctions::oscillatingLinearMotion::transformation(): Time = 0.0185683 transformation: ((0 0.0349207 0) (1 (0 0 0)))
Executing mesh motion with velocity ((0 1.87257 0) (0 (0 0 0)))  and dt:0.000663155
Updating vertex markup
solidBodyMotionFunctions::oscillatingCosLinearMotion::transformation(): Time = 0.0185683 transformation: ((0.297961 0 0) (1 (0 0 0)))
Executing mesh motion with velocity ((-0.215509 0 0) (0 (0 0 0)))  and dt:0.000663155
Second Layer height0.005
Valor de addLayerFactor_-0.688819
Updating vertex markup
solidBodyMotionFunctions::oscillatingLinearMotion::transformation(): Time = 0.0185683 transformation: ((0 0.0349207 0) (1 (0 0 0)))
Executing mesh motion with velocity ((0 0 0) (0 (0 0 0)))  and dt:0.000663155
Updating vertex markup
solidBodyMotionFunctions::oscillatingCosLinearMotion::transformation(): Time = 0.0185683 transformation: ((0.297961 0 0) (1 (0 0 0)))
Executing mesh motion with velocity ((0 0 0) (0 (0 0 0)))  and dt:0.000663155
DILUPBiCG:  Solving for T, Initial residual = 0.00326018, Final residual = 2.88392e-10, No Iterations 41
ExecutionTime = 3.16 s
ClockTime = 3 s

Time = 0.0192315

Second Layer height0.005
Valor de addLayerFactor_-0.0161247
Updating vertex markup
solidBodyMotionFunctions::oscillatingLinearMotion::transformation(): Time = 0.0192315 transformation: ((0 0.0361619 0) (1 (0 0 0)))
Executing mesh motion with velocity ((0 1.87165 0) (0 (0 0 0)))  and dt:0.000663155
Updating vertex markup
solidBodyMotionFunctions::oscillatingCosLinearMotion::transformation(): Time = 0.0192315 transformation: ((0.297813 0 0) (1 (0 0 0)))
Executing mesh motion with velocity ((-0.22331 0 0) (0 (0 0 0)))  and dt:0.000663155
Second Layer height0.005
Valor de addLayerFactor_-0.77774
Updating vertex markup
solidBodyMotionFunctions::oscillatingLinearMotion::transformation(): Time = 0.0192315 transformation: ((0 0.0361619 0) (1 (0 0 0)))
Executing mesh motion with velocity ((0 0 0) (0 (0 0 0)))  and dt:0.000663155
Updating vertex markup
solidBodyMotionFunctions::oscillatingCosLinearMotion::transformation(): Time = 0.0192315 transformation: ((0.297813 0 0) (1 (0 0 0)))
Executing mesh motion with velocity ((0 0 0) (0 (0 0 0)))  and dt:0.000663155
DILUPBiCG:  Solving for T, Initial residual = 0.00303972, Final residual = 2.85386e-10, No Iterations 41
ExecutionTime = 3.24 s
ClockTime = 3 s

Time = 0.0198946

Second Layer height0.005
Valor de addLayerFactor_0.188556
Updating vertex markup
solidBodyMotionFunctions::oscillatingLinearMotion::transformation(): Time = 0.0198946 transformation: ((0 0.0374024 0) (1 (0 0 0)))
Executing mesh motion with velocity ((0 1.87071 0) (0 (0 0 0)))  and dt:0.000663155
Updating vertex markup
solidBodyMotionFunctions::oscillatingCosLinearMotion::transformation(): Time = 0.0198946 transformation: ((0.297659 0 0) (1 (0 0 0)))
Executing mesh motion with velocity ((-0.231106 0 0) (0 (0 0 0)))  and dt:0.000663155
Second Layer height0.005
Valor de addLayerFactor_-0.880194
Updating vertex markup
solidBodyMotionFunctions::oscillatingLinearMotion::transformation(): Time = 0.0198946 transformation: ((0 0.0374024 0) (1 (0 0 0)))
Executing mesh motion with velocity ((0 0 0) (0 (0 0 0)))  and dt:0.000663155
Updating vertex markup
solidBodyMotionFunctions::oscillatingCosLinearMotion::transformation(): Time = 0.0198946 transformation: ((0.297659 0 0) (1 (0 0 0)))
Executing mesh motion with velocity ((0 0 0) (0 (0 0 0)))  and dt:0.000663155
DILUPBiCG:  Solving for T, Initial residual = 0.00296375, Final residual = 8.37346e-09, No Iterations 41
ExecutionTime = 3.33 s
ClockTime = 3 s

Time = 0.0205578

Second Layer height0.005
Valor de addLayerFactor_0.324545
Updating vertex markup
solidBodyMotionFunctions::oscillatingLinearMotion::transformation(): Time = 0.0205578 transformation: ((0 0.0386423 0) (1 (0 0 0)))
Executing mesh motion with velocity ((0 1.86973 0) (0 (0 0 0)))  and dt:0.000663155
Updating vertex markup
solidBodyMotionFunctions::oscillatingCosLinearMotion::transformation(): Time = 0.0205578 transformation: ((0.297501 0 0) (1 (0 0 0)))
Executing mesh motion with velocity ((-0.238899 0 0) (0 (0 0 0)))  and dt:0.000663155
Second Layer height0.005
Valor de addLayerFactor_-0.999302
Updating vertex markup
solidBodyMotionFunctions::oscillatingLinearMotion::transformation(): Time = 0.0205578 transformation: ((0 0.0386423 0) (1 (0 0 0)))
Executing mesh motion with velocity ((0 0 0) (0 (0 0 0)))  and dt:0.000663155
Updating vertex markup
solidBodyMotionFunctions::oscillatingCosLinearMotion::transformation(): Time = 0.0205578 transformation: ((0.297501 0 0) (1 (0 0 0)))
Executing mesh motion with velocity ((0 0 0) (0 (0 0 0)))  and dt:0.000663155
DILUPBiCG:  Solving for T, Initial residual = 0.00290014, Final residual = 8.81634e-10, No Iterations 41
ExecutionTime = 3.41 s
ClockTime = 3 s

Time = 0.0212209

Second Layer height0.005
Valor de addLayerFactor_0.421453
Vector de cara a agregar: (0.00432117 0 0) Vector de faceZone: (0.005 0 0)
Vector de cara a agregar: (0.00432117 0 0) Vector de faceZone: (0.005 0 0)
Local Topology change. Calculating premotion points
Updating vertex markup
solidBodyMotionFunctions::oscillatingLinearMotion::transformation(): Time = 0.0212209 transformation: ((0 0.0398816 0) (1 (0 0 0)))
Executing mesh motion with velocity ((0 1.86872 0) (0 (0 0 0)))  and dt:0.000663155
Updating vertex markup
solidBodyMotionFunctions::oscillatingCosLinearMotion::transformation(): Time = 0.0212209 transformation: ((0.297337 0 0) (1 (0 0 0)))
Executing mesh motion with velocity ((-0.246687 0 0) (0 (0 0 0)))  and dt:0.000663155
Second Layer height0.005
Valor de addLayerFactor_-1.13924
Local Topology change. Calculating premotion points
Updating vertex markup
solidBodyMotionFunctions::oscillatingLinearMotion::transformation(): Time = 0.0212209 transformation: ((0 0.0398816 0) (1 (0 0 0)))
Executing mesh motion with velocity ((0 0 0) (0 (0 0 0)))  and dt:0.000663155
Updating vertex markup
solidBodyMotionFunctions::oscillatingCosLinearMotion::transformation(): Time = 0.0212209 transformation: ((0.297337 0 0) (1 (0 0 0)))
Executing mesh motion with velocity ((0 0 0) (0 (0 0 0)))  and dt:0.000663155
DILUPBiCG:  Solving for T, Initial residual = 0.00304349, Final residual = 3.9115e-10, No Iterations 41
ExecutionTime = 3.67 s
ClockTime = 4 s

Time = 0.0218841

Second Layer height0.005
Valor de addLayerFactor_-0.0242571
Updating vertex markup
solidBodyMotionFunctions::oscillatingLinearMotion::transformation(): Time = 0.0218841 transformation: ((0 0.0411201 0) (1 (0 0 0)))
Executing mesh motion with velocity ((0 1.86767 0) (0 (0 0 0)))  and dt:0.000663155
Updating vertex markup
solidBodyMotionFunctions::oscillatingCosLinearMotion::transformation(): Time = 0.0218841 transformation: ((0.297169 0 0) (1 (0 0 0)))
Executing mesh motion with velocity ((-0.254471 0 0) (0 (0 0 0)))  and dt:0.000663155
Second Layer height0.005
Valor de addLayerFactor_0.302507
Updating vertex markup
solidBodyMotionFunctions::oscillatingLinearMotion::transformation(): Time = 0.0218841 transformation: ((0 0.0411201 0) (1 (0 0 0)))
Executing mesh motion with velocity ((0 0 0) (0 (0 0 0)))  and dt:0.000663155
Updating vertex markup
solidBodyMotionFunctions::oscillatingCosLinearMotion::transformation(): Time = 0.0218841 transformation: ((0.297169 0 0) (1 (0 0 0)))
Executing mesh motion with velocity ((0 0 0) (0 (0 0 0)))  and dt:0.000663155
DILUPBiCG:  Solving for T, Initial residual = 0.00279857, Final residual = 2.56511e-10, No Iterations 41
ExecutionTime = 3.75 s
ClockTime = 4 s

Time = 0.0225473

Second Layer height0.005
Valor de addLayerFactor_0.183026
Updating vertex markup
solidBodyMotionFunctions::oscillatingLinearMotion::transformation(): Time = 0.0225473 transformation: ((0 0.042358 0) (1 (0 0 0)))
Executing mesh motion with velocity ((0 1.8666 0) (0 (0 0 0)))  and dt:0.000663155
Updating vertex markup
solidBodyMotionFunctions::oscillatingCosLinearMotion::transformation(): Time = 0.0225473 transformation: ((0.296995 0 0) (1 (0 0 0)))
Executing mesh motion with velocity ((-0.262251 0 0) (0 (0 0 0)))  and dt:0.000663155
Second Layer height0.005
Valor de addLayerFactor_0.285164
Updating vertex markup
solidBodyMotionFunctions::oscillatingLinearMotion::transformation(): Time = 0.0225473 transformation: ((0 0.042358 0) (1 (0 0 0)))
Executing mesh motion with velocity ((0 0 0) (0 (0 0 0)))  and dt:0.000663155
Updating vertex markup
solidBodyMotionFunctions::oscillatingCosLinearMotion::transformation(): Time = 0.0225473 transformation: ((0.296995 0 0) (1 (0 0 0)))
Executing mesh motion with velocity ((0 0 0) (0 (0 0 0)))  and dt:0.000663155
DILUPBiCG:  Solving for T, Initial residual = 0.00273422, Final residual = 2.51553e-10, No Iterations 41
ExecutionTime = 3.83 s
ClockTime = 4 s

Time = 0.0232104

Second Layer height0.005
Valor de addLayerFactor_0.320466
Updating vertex markup
solidBodyMotionFunctions::oscillatingLinearMotion::transformation(): Time = 0.0232104 transformation: ((0 0.0435951 0) (1 (0 0 0)))
Executing mesh motion with velocity ((0 1.86549 0) (0 (0 0 0)))  and dt:0.000663155
Updating vertex markup
solidBodyMotionFunctions::oscillatingCosLinearMotion::transformation(): Time = 0.0232104 transformation: ((0.296816 0 0) (1 (0 0 0)))
Executing mesh motion with velocity ((-0.270026 0 0) (0 (0 0 0)))  and dt:0.000663155
Second Layer height0.005
Valor de addLayerFactor_0.266383
Updating vertex markup
solidBodyMotionFunctions::oscillatingLinearMotion::transformation(): Time = 0.0232104 transformation: ((0 0.0435951 0) (1 (0 0 0)))
Executing mesh motion with velocity ((0 0 0) (0 (0 0 0)))  and dt:0.000663155
Updating vertex markup
solidBodyMotionFunctions::oscillatingCosLinearMotion::transformation(): Time = 0.0232104 transformation: ((0.296816 0 0) (1 (0 0 0)))
Executing mesh motion with velocity ((0 0 0) (0 (0 0 0)))  and dt:0.000663155
DILUPBiCG:  Solving for T, Initial residual = 0.00268333, Final residual = 2.47451e-10, No Iterations 41
ExecutionTime = 3.92 s
ClockTime = 4 s

Time = 0.0238736

Second Layer height0.005
Valor de addLayerFactor_0.418273
Vector de cara a agregar: (0.00429755 0 0) Vector de faceZone: (0.005 0 0)
Vector de cara a agregar: (0.00429755 0 0) Vector de faceZone: (0.005 0 0)
Local Topology change. Calculating premotion points
Updating vertex markup
solidBodyMotionFunctions::oscillatingLinearMotion::transformation(): Time = 0.0238736 transformation: ((0 0.0448314 0) (1 (0 0 0)))
Executing mesh motion with velocity ((0 1.86435 0) (0 (0 0 0)))  and dt:0.000663155
Updating vertex markup
solidBodyMotionFunctions::oscillatingCosLinearMotion::transformation(): Time = 0.0238736 transformation: ((0.296631 0 0) (1 (0 0 0)))
Executing mesh motion with velocity ((-0.277797 0 0) (0 (0 0 0)))  and dt:0.000663155
Second Layer height0.005
Valor de addLayerFactor_0.246003
Updating vertex markup
solidBodyMotionFunctions::oscillatingLinearMotion::transformation(): Time = 0.0238736 transformation: ((0 0.0448314 0) (1 (0 0 0)))
Executing mesh motion with velocity ((0 0 0) (0 (0 0 0)))  and dt:0.000663155
Updating vertex markup
solidBodyMotionFunctions::oscillatingCosLinearMotion::transformation(): Time = 0.0238736 transformation: ((0.296631 0 0) (1 (0 0 0)))
Executing mesh motion with velocity ((0 0 0) (0 (0 0 0)))  and dt:0.000663155
DILUPBiCG:  Solving for T, Initial residual = 0.00287485, Final residual = 4.82509e-10, No Iterations 41
ExecutionTime = 4.11 s
ClockTime = 4 s

Time = 0.0245367

Second Layer height0.005
Valor de addLayerFactor_-0.0348882
Updating vertex markup
solidBodyMotionFunctions::oscillatingLinearMotion::transformation(): Time = 0.0245367 transformation: ((0 0.046067 0) (1 (0 0 0)))
Executing mesh motion with velocity ((0 1.86317 0) (0 (0 0 0)))  and dt:0.000663155
Updating vertex markup
solidBodyMotionFunctions::oscillatingCosLinearMotion::transformation(): Time = 0.0245367 transformation: ((0.296442 0 0) (1 (0 0 0)))
Executing mesh motion with velocity ((-0.285562 0 0) (0 (0 0 0)))  and dt:0.000663155
Second Layer height0.005
Valor de addLayerFactor_0.223838
Updating vertex markup
solidBodyMotionFunctions::oscillatingLinearMotion::transformation(): Time = 0.0245367 transformation: ((0 0.046067 0) (1 (0 0 0)))
Executing mesh motion with velocity ((0 0 0) (0 (0 0 0)))  and dt:0.000663155
Updating vertex markup
solidBodyMotionFunctions::oscillatingCosLinearMotion::transformation(): Time = 0.0245367 transformation: ((0.296442 0 0) (1 (0 0 0)))
Executing mesh motion with velocity ((0 0 0) (0 (0 0 0)))  and dt:0.000663155
DILUPBiCG:  Solving for T, Initial residual = 0.00260531, Final residual = 2.35009e-10, No Iterations 41
ExecutionTime = 4.19 s
ClockTime = 4 s

Time = 0.0251999

Second Layer height0.005
Valor de addLayerFactor_0.175871
Updating vertex markup
solidBodyMotionFunctions::oscillatingLinearMotion::transformation(): Time = 0.0251999 transformation: ((0 0.0473018 0) (1 (0 0 0)))
Executing mesh motion with velocity ((0 1.86197 0) (0 (0 0 0)))  and dt:0.000663155
Updating vertex markup
solidBodyMotionFunctions::oscillatingCosLinearMotion::transformation(): Time = 0.0251999 transformation: ((0.296247 0 0) (1 (0 0 0)))
Executing mesh motion with velocity ((-0.293323 0 0) (0 (0 0 0)))  and dt:0.000663155
Second Layer height0.005
Valor de addLayerFactor_0.199671
Updating vertex markup
solidBodyMotionFunctions::oscillatingLinearMotion::transformation(): Time = 0.0251999 transformation: ((0 0.0473018 0) (1 (0 0 0)))
Executing mesh motion with velocity ((0 0 0) (0 (0 0 0)))  and dt:0.000663155
Updating vertex markup
solidBodyMotionFunctions::oscillatingCosLinearMotion::transformation(): Time = 0.0251999 transformation: ((0.296247 0 0) (1 (0 0 0)))
Executing mesh motion with velocity ((0 0 0) (0 (0 0 0)))  and dt:0.000663155
DILUPBiCG:  Solving for T, Initial residual = 0.00254902, Final residual = 2.36355e-10, No Iterations 41
ExecutionTime = 4.27 s
ClockTime = 4 s

Time = 0.025863

Second Layer height0.005
Valor de addLayerFactor_0.315236
Updating vertex markup
solidBodyMotionFunctions::oscillatingLinearMotion::transformation(): Time = 0.025863 transformation: ((0 0.0485357 0) (1 (0 0 0)))
Executing mesh motion with velocity ((0 1.86073 0) (0 (0 0 0)))  and dt:0.000663155
Updating vertex markup
solidBodyMotionFunctions::oscillatingCosLinearMotion::transformation(): Time = 0.025863 transformation: ((0.296048 0 0) (1 (0 0 0)))
Executing mesh motion with velocity ((-0.301079 0 0) (0 (0 0 0)))  and dt:0.000663155
Second Layer height0.005
Valor de addLayerFactor_0.173249
Updating vertex markup
solidBodyMotionFunctions::oscillatingLinearMotion::transformation(): Time = 0.025863 transformation: ((0 0.0485357 0) (1 (0 0 0)))
Executing mesh motion with velocity ((0 0 0) (0 (0 0 0)))  and dt:0.000663155
Updating vertex markup
solidBodyMotionFunctions::oscillatingCosLinearMotion::transformation(): Time = 0.025863 transformation: ((0.296048 0 0) (1 (0 0 0)))
Executing mesh motion with velocity ((0 0 0) (0 (0 0 0)))  and dt:0.000663155
DILUPBiCG:  Solving for T, Initial residual = 0.00250738, Final residual = 2.35668e-10, No Iterations 41
ExecutionTime = 4.36 s
ClockTime = 4 s

Time = 0.0265262

Second Layer height0.005
Valor de addLayerFactor_0.414227
Vector de cara a agregar: (0.00426787 0 0) Vector de faceZone: (0.005 0 0)
Vector de cara a agregar: (0.00426787 0 0) Vector de faceZone: (0.005 0 0)
Local Topology change. Calculating premotion points
Updating vertex markup
solidBodyMotionFunctions::oscillatingLinearMotion::transformation(): Time = 0.0265262 transformation: ((0 0.0497688 0) (1 (0 0 0)))
Executing mesh motion with velocity ((0 1.85946 0) (0 (0 0 0)))  and dt:0.000663155
Updating vertex markup
solidBodyMotionFunctions::oscillatingCosLinearMotion::transformation(): Time = 0.0265262 transformation: ((0.295843 0 0) (1 (0 0 0)))
Executing mesh motion with velocity ((-0.308829 0 0) (0 (0 0 0)))  and dt:0.000663155
Second Layer height0.005
Valor de addLayerFactor_0.144271
Updating vertex markup
solidBodyMotionFunctions::oscillatingLinearMotion::transformation(): Time = 0.0265262 transformation: ((0 0.0497688 0) (1 (0 0 0)))
Executing mesh motion with velocity ((0 0 0) (0 (0 0 0)))  and dt:0.000663155
Updating vertex markup
solidBodyMotionFunctions::oscillatingCosLinearMotion::transformation(): Time = 0.0265262 transformation: ((0.295843 0 0) (1 (0 0 0)))
Executing mesh motion with velocity ((0 0 0) (0 (0 0 0)))  and dt:0.000663155
DILUPBiCG:  Solving for T, Initial residual = 0.00273824, Final residual = 2.9746e-10, No Iterations 41
ExecutionTime = 4.65 s
ClockTime = 5 s

Time = 0.0271893

Second Layer height0.005
Valor de addLayerFactor_-0.048473
Updating vertex markup
solidBodyMotionFunctions::oscillatingLinearMotion::transformation(): Time = 0.0271893 transformation: ((0 0.0510011 0) (1 (0 0 0)))
Executing mesh motion with velocity ((0 1.85815 0) (0 (0 0 0)))  and dt:0.000663155
Updating vertex markup
solidBodyMotionFunctions::oscillatingCosLinearMotion::transformation(): Time = 0.0271893 transformation: ((0.295633 0 0) (1 (0 0 0)))
Executing mesh motion with velocity ((-0.316574 0 0) (0 (0 0 0)))  and dt:0.000663155
Second Layer height0.005
Valor de addLayerFactor_0.112379
Updating vertex markup
solidBodyMotionFunctions::oscillatingLinearMotion::transformation(): Time = 0.0271893 transformation: ((0 0.0510011 0) (1 (0 0 0)))
Executing mesh motion with velocity ((0 0 0) (0 (0 0 0)))  and dt:0.000663155
Updating vertex markup
solidBodyMotionFunctions::oscillatingCosLinearMotion::transformation(): Time = 0.0271893 transformation: ((0.295633 0 0) (1 (0 0 0)))
Executing mesh motion with velocity ((0 0 0) (0 (0 0 0)))  and dt:0.000663155
DILUPBiCG:  Solving for T, Initial residual = 0.00244648, Final residual = 2.22962e-10, No Iterations 41
ExecutionTime = 4.74 s
ClockTime = 5 s

Time = 0.0278525

Second Layer height0.005
Valor de addLayerFactor_0.166817
Updating vertex markup
solidBodyMotionFunctions::oscillatingLinearMotion::transformation(): Time = 0.0278525 transformation: ((0 0.0522324 0) (1 (0 0 0)))
Executing mesh motion with velocity ((0 1.85682 0) (0 (0 0 0)))  and dt:0.000663155
Updating vertex markup
solidBodyMotionFunctions::oscillatingCosLinearMotion::transformation(): Time = 0.0278525 transformation: ((0.295418 0 0) (1 (0 0 0)))
Executing mesh motion with velocity ((-0.324314 0 0) (0 (0 0 0)))  and dt:0.000663155
Second Layer height0.005
Valor de addLayerFactor_0.0771437
Updating vertex markup
solidBodyMotionFunctions::oscillatingLinearMotion::transformation(): Time = 0.0278525 transformation: ((0 0.0522324 0) (1 (0 0 0)))
Executing mesh motion with velocity ((0 0 0) (0 (0 0 0)))  and dt:0.000663155
Updating vertex markup
solidBodyMotionFunctions::oscillatingCosLinearMotion::transformation(): Time = 0.0278525 transformation: ((0.295418 0 0) (1 (0 0 0)))
Executing mesh motion with velocity ((0 0 0) (0 (0 0 0)))  and dt:0.000663155
DILUPBiCG:  Solving for T, Initial residual = 0.00239607, Final residual = 2.30725e-10, No Iterations 41
ExecutionTime = 4.82 s
ClockTime = 5 s

Time = 0.0285156

Second Layer height0.005
Valor de addLayerFactor_0.308671
Updating vertex markup
solidBodyMotionFunctions::oscillatingLinearMotion::transformation(): Time = 0.0285156 transformation: ((0 0.0534629 0) (1 (0 0 0)))
Executing mesh motion with velocity ((0 1.85545 0) (0 (0 0 0)))  and dt:0.000663155
Updating vertex markup
solidBodyMotionFunctions::oscillatingCosLinearMotion::transformation(): Time = 0.0285156 transformation: ((0.295198 0 0) (1 (0 0 0)))
Executing mesh motion with velocity ((-0.332048 0 0) (0 (0 0 0)))  and dt:0.000663155
Second Layer height0.005
Valor de addLayerFactor_0.0380477
Updating vertex markup
solidBodyMotionFunctions::oscillatingLinearMotion::transformation(): Time = 0.0285156 transformation: ((0 0.0534629 0) (1 (0 0 0)))
Executing mesh motion with velocity ((0 0 0) (0 (0 0 0)))  and dt:0.000663155
Updating vertex markup
solidBodyMotionFunctions::oscillatingCosLinearMotion::transformation(): Time = 0.0285156 transformation: ((0.295198 0 0) (1 (0 0 0)))
Executing mesh motion with velocity ((0 0 0) (0 (0 0 0)))  and dt:0.000663155
DILUPBiCG:  Solving for T, Initial residual = 0.00236136, Final residual = 2.36413e-10, No Iterations 41
ExecutionTime = 4.91 s
ClockTime = 5 s

Time = 0.0291788

Second Layer height0.005
Valor de addLayerFactor_0.409185
Vector de cara a agregar: (0.00423145 0 0) Vector de faceZone: (0.005 0 0)
Vector de cara a agregar: (0.00423145 0 0) Vector de faceZone: (0.005 0 0)
Local Topology change. Calculating premotion points
Updating vertex markup
solidBodyMotionFunctions::oscillatingLinearMotion::transformation(): Time = 0.0291788 transformation: ((0 0.0546924 0) (1 (0 0 0)))
Executing mesh motion with velocity ((0 1.85405 0) (0 (0 0 0)))  and dt:0.000663155
Updating vertex markup
solidBodyMotionFunctions::oscillatingCosLinearMotion::transformation(): Time = 0.0291788 transformation: ((0.294972 0 0) (1 (0 0 0)))
Executing mesh motion with velocity ((-0.339776 0 0) (0 (0 0 0)))  and dt:0.000663155
Second Layer height0.005
Valor de addLayerFactor_-0.00554278
Updating vertex markup
solidBodyMotionFunctions::oscillatingLinearMotion::transformation(): Time = 0.0291788 transformation: ((0 0.0546924 0) (1 (0 0 0)))
Executing mesh motion with velocity ((0 0 0) (0 (0 0 0)))  and dt:0.000663155
Updating vertex markup
solidBodyMotionFunctions::oscillatingCosLinearMotion::transformation(): Time = 0.0291788 transformation: ((0.294972 0 0) (1 (0 0 0)))
Executing mesh motion with velocity ((0 0 0) (0 (0 0 0)))  and dt:0.000663155
DILUPBiCG:  Solving for T, Initial residual = 0.00262342, Final residual = 2.89527e-10, No Iterations 41
ExecutionTime = 5.1 s
ClockTime = 5 s

Time = 0.029842

Second Layer height0.005
Valor de addLayerFactor_-0.0655493
Updating vertex markup
solidBodyMotionFunctions::oscillatingLinearMotion::transformation(): Time = 0.029842 transformation: ((0 0.055921 0) (1 (0 0 0)))
Executing mesh motion with velocity ((0 1.85262 0) (0 (0 0 0)))  and dt:0.000663155
Updating vertex markup
solidBodyMotionFunctions::oscillatingCosLinearMotion::transformation(): Time = 0.029842 transformation: ((0.294742 0 0) (1 (0 0 0)))
Executing mesh motion with velocity ((-0.347498 0 0) (0 (0 0 0)))  and dt:0.000663155
Second Layer height0.005
Valor de addLayerFactor_-0.0544088
Updating vertex markup
solidBodyMotionFunctions::oscillatingLinearMotion::transformation(): Time = 0.029842 transformation: ((0 0.055921 0) (1 (0 0 0)))
Executing mesh motion with velocity ((0 0 0) (0 (0 0 0)))  and dt:0.000663155
Updating vertex markup
solidBodyMotionFunctions::oscillatingCosLinearMotion::transformation(): Time = 0.029842 transformation: ((0.294742 0 0) (1 (0 0 0)))
Executing mesh motion with velocity ((0 0 0) (0 (0 0 0)))  and dt:0.000663155
DILUPBiCG:  Solving for T, Initial residual = 0.00231321, Final residual = 2.20833e-10, No Iterations 41
ExecutionTime = 5.18 s
ClockTime = 5 s

Time = 0.0305051

Second Layer height0.005
Valor de addLayerFactor_0.155546
Updating vertex markup
solidBodyMotionFunctions::oscillatingLinearMotion::transformation(): Time = 0.0305051 transformation: ((0 0.0571486 0) (1 (0 0 0)))
Executing mesh motion with velocity ((0 1.85116 0) (0 (0 0 0)))  and dt:0.000663155
Updating vertex markup
solidBodyMotionFunctions::oscillatingCosLinearMotion::transformation(): Time = 0.0305051 transformation: ((0.294506 0 0) (1 (0 0 0)))
Executing mesh motion with velocity ((-0.355214 0 0) (0 (0 0 0)))  and dt:0.000663155
Second Layer height0.005
Valor de addLayerFactor_-0.109525
Updating vertex markup
solidBodyMotionFunctions::oscillatingLinearMotion::transformation(): Time = 0.0305051 transformation: ((0 0.0571486 0) (1 (0 0 0)))
Executing mesh motion with velocity ((0 0 0) (0 (0 0 0)))  and dt:0.000663155
Updating vertex markup
solidBodyMotionFunctions::oscillatingCosLinearMotion::transformation(): Time = 0.0305051 transformation: ((0.294506 0 0) (1 (0 0 0)))
Executing mesh motion with velocity ((0 0 0) (0 (0 0 0)))  and dt:0.000663155
DILUPBiCG:  Solving for T, Initial residual = 0.00226723, Final residual = 2.43263e-10, No Iterations 41
ExecutionTime = 5.27 s
ClockTime = 5 s

Time = 0.0311683

Second Layer height0.005
Valor de addLayerFactor_0.300562
Updating vertex markup
solidBodyMotionFunctions::oscillatingLinearMotion::transformation(): Time = 0.0311683 transformation: ((0 0.0583752 0) (1 (0 0 0)))
Executing mesh motion with velocity ((0 1.84966 0) (0 (0 0 0)))  and dt:0.000663155
Updating vertex markup
solidBodyMotionFunctions::oscillatingCosLinearMotion::transformation(): Time = 0.0311683 transformation: ((0.294266 0 0) (1 (0 0 0)))
Executing mesh motion with velocity ((-0.362924 0 0) (0 (0 0 0)))  and dt:0.000663155
Second Layer height0.005
Valor de addLayerFactor_-0.172125
Updating vertex markup
solidBodyMotionFunctions::oscillatingLinearMotion::transformation(): Time = 0.0311683 transformation: ((0 0.0583752 0) (1 (0 0 0)))
Executing mesh motion with velocity ((0 0 0) (0 (0 0 0)))  and dt:0.000663155
Updating vertex markup
solidBodyMotionFunctions::oscillatingCosLinearMotion::transformation(): Time = 0.0311683 transformation: ((0.294266 0 0) (1 (0 0 0)))
Executing mesh motion with velocity ((0 0 0) (0 (0 0 0)))  and dt:0.000663155
DILUPBiCG:  Solving for T, Initial residual = 0.00223787, Final residual = 2.75009e-10, No Iterations 41
ExecutionTime = 5.36 s
ClockTime = 5 s

Time = 0.0318314

Second Layer height0.005
Valor de addLayerFactor_0.402999
Vector de cara a agregar: (0.0041876 0 0) Vector de faceZone: (0.005 0 0)
Vector de cara a agregar: (0.0041876 0 0) Vector de faceZone: (0.005 0 0)
Local Topology change. Calculating premotion points
Updating vertex markup
solidBodyMotionFunctions::oscillatingLinearMotion::transformation(): Time = 0.0318314 transformation: ((0 0.0596008 0) (1 (0 0 0)))
Executing mesh motion with velocity ((0 1.84813 0) (0 (0 0 0)))  and dt:0.000663155
Updating vertex markup
solidBodyMotionFunctions::oscillatingCosLinearMotion::transformation(): Time = 0.0318314 transformation: ((0.29402 0 0) (1 (0 0 0)))
Executing mesh motion with velocity ((-0.370628 0 0) (0 (0 0 0)))  and dt:0.000663155
Second Layer height0.005
Valor de addLayerFactor_-0.243789
Updating vertex markup
solidBodyMotionFunctions::oscillatingLinearMotion::transformation(): Time = 0.0318314 transformation: ((0 0.0596008 0) (1 (0 0 0)))
Executing mesh motion with velocity ((0 0 0) (0 (0 0 0)))  and dt:0.000663155
Updating vertex markup
solidBodyMotionFunctions::oscillatingCosLinearMotion::transformation(): Time = 0.0318314 transformation: ((0.29402 0 0) (1 (0 0 0)))
Executing mesh motion with velocity ((0 0 0) (0 (0 0 0)))  and dt:0.000663155
DILUPBiCG:  Solving for T, Initial residual = 0.00252356, Final residual = 5.26081e-10, No Iterations 41
ExecutionTime = 5.55 s
ClockTime = 6 s

Time = 0.0324946

Second Layer height0.005
Valor de addLayerFactor_-0.0867677
Updating vertex markup
solidBodyMotionFunctions::oscillatingLinearMotion::transformation(): Time = 0.0324946 transformation: ((0 0.0608254 0) (1 (0 0 0)))
Executing mesh motion with velocity ((0 1.84657 0) (0 (0 0 0)))  and dt:0.000663155
Updating vertex markup
solidBodyMotionFunctions::oscillatingCosLinearMotion::transformation(): Time = 0.0324946 transformation: ((0.293769 0 0) (1 (0 0 0)))
Executing mesh motion with velocity ((-0.378325 0 0) (0 (0 0 0)))  and dt:0.000663155
Second Layer height0.005
Valor de addLayerFactor_-0.326582
Updating vertex markup
solidBodyMotionFunctions::oscillatingLinearMotion::transformation(): Time = 0.0324946 transformation: ((0 0.0608254 0) (1 (0 0 0)))
Executing mesh motion with velocity ((0 0 0) (0 (0 0 0)))  and dt:0.000663155
Updating vertex markup
solidBodyMotionFunctions::oscillatingCosLinearMotion::transformation(): Time = 0.0324946 transformation: ((0.293769 0 0) (1 (0 0 0)))
Executing mesh motion with velocity ((0 0 0) (0 (0 0 0)))  and dt:0.000663155
DILUPBiCG:  Solving for T, Initial residual = 0.00219938, Final residual = 2.33619e-10, No Iterations 41
ExecutionTime = 5.64 s
ClockTime = 6 s

Time = 0.0331577

Second Layer height0.005
Valor de addLayerFactor_0.141684
Updating vertex markup
solidBodyMotionFunctions::oscillatingLinearMotion::transformation(): Time = 0.0331577 transformation: ((0 0.0620489 0) (1 (0 0 0)))
Executing mesh motion with velocity ((0 1.84498 0) (0 (0 0 0)))  and dt:0.000663155
Updating vertex markup
solidBodyMotionFunctions::oscillatingCosLinearMotion::transformation(): Time = 0.0331577 transformation: ((0.293513 0 0) (1 (0 0 0)))
Executing mesh motion with velocity ((-0.386016 0 0) (0 (0 0 0)))  and dt:0.000663155
Second Layer height0.005
Valor de addLayerFactor_-0.423246
Updating vertex markup
solidBodyMotionFunctions::oscillatingLinearMotion::transformation(): Time = 0.0331577 transformation: ((0 0.0620489 0) (1 (0 0 0)))
Executing mesh motion with velocity ((0 0 0) (0 (0 0 0)))  and dt:0.000663155
Updating vertex markup
solidBodyMotionFunctions::oscillatingCosLinearMotion::transformation(): Time = 0.0331577 transformation: ((0.293513 0 0) (1 (0 0 0)))
Executing mesh motion with velocity ((0 0 0) (0 (0 0 0)))  and dt:0.000663155
DILUPBiCG:  Solving for T, Initial residual = 0.00215684, Final residual = 3.67368e-10, No Iterations 41
ExecutionTime = 5.72 s
ClockTime = 6 s

Time = 0.0338209

Second Layer height0.005
Valor de addLayerFactor_0.290666
Updating vertex markup
solidBodyMotionFunctions::oscillatingLinearMotion::transformation(): Time = 0.0338209 transformation: ((0 0.0632713 0) (1 (0 0 0)))
Executing mesh motion with velocity ((0 1.84335 0) (0 (0 0 0)))  and dt:0.000663155
Updating vertex markup
solidBodyMotionFunctions::oscillatingCosLinearMotion::transformation(): Time = 0.0338209 transformation: ((0.293252 0 0) (1 (0 0 0)))
Executing mesh motion with velocity ((-0.3937 0 0) (0 (0 0 0)))  and dt:0.000663155
Second Layer height0.005
Valor de addLayerFactor_-0.537509
Updating vertex markup
solidBodyMotionFunctions::oscillatingLinearMotion::transformation(): Time = 0.0338209 transformation: ((0 0.0632713 0) (1 (0 0 0)))
Executing mesh motion with velocity ((0 0 0) (0 (0 0 0)))  and dt:0.000663155
Updating vertex markup
solidBodyMotionFunctions::oscillatingCosLinearMotion::transformation(): Time = 0.0338209 transformation: ((0.293252 0 0) (1 (0 0 0)))
Executing mesh motion with velocity ((0 0 0) (0 (0 0 0)))  and dt:0.000663155
DILUPBiCG:  Solving for T, Initial residual = 0.00213163, Final residual = 5.30567e-10, No Iterations 41
ExecutionTime = 5.81 s
ClockTime = 6 s

Time = 0.034484

Second Layer height0.005
Valor de addLayerFactor_0.3955
Vector de cara a agregar: (0.00413565 0 0) Vector de faceZone: (0.005 0 0)
Vector de cara a agregar: (0.00413565 0 0) Vector de faceZone: (0.005 0 0)
Local Topology change. Calculating premotion points
Updating vertex markup
solidBodyMotionFunctions::oscillatingLinearMotion::transformation(): Time = 0.034484 transformation: ((0 0.0644926 0) (1 (0 0 0)))
Executing mesh motion with velocity ((0 1.8417 0) (0 (0 0 0)))  and dt:0.000663155
Updating vertex markup
solidBodyMotionFunctions::oscillatingCosLinearMotion::transformation(): Time = 0.034484 transformation: ((0.292986 0 0) (1 (0 0 0)))
Executing mesh motion with velocity ((-0.401377 0 0) (0 (0 0 0)))  and dt:0.000663155
Second Layer height0.005
Valor de addLayerFactor_-0.674572
Updating vertex markup
solidBodyMotionFunctions::oscillatingLinearMotion::transformation(): Time = 0.034484 transformation: ((0 0.0644926 0) (1 (0 0 0)))
Executing mesh motion with velocity ((0 0 0) (0 (0 0 0)))  and dt:0.000663155
Updating vertex markup
solidBodyMotionFunctions::oscillatingCosLinearMotion::transformation(): Time = 0.034484 transformation: ((0.292986 0 0) (1 (0 0 0)))
Executing mesh motion with velocity ((0 0 0) (0 (0 0 0)))  and dt:0.000663155
DILUPBiCG:  Solving for T, Initial residual = 0.00243406, Final residual = 3.45059e-10, No Iterations 41
ExecutionTime = 6 s
ClockTime = 6 s

Time = 0.0351472

Second Layer height0.005
Valor de addLayerFactor_-0.112934
Updating vertex markup
solidBodyMotionFunctions::oscillatingLinearMotion::transformation(): Time = 0.0351472 transformation: ((0 0.0657128 0) (1 (0 0 0)))
Executing mesh motion with velocity ((0 1.84001 0) (0 (0 0 0)))  and dt:0.000663155
Updating vertex markup
solidBodyMotionFunctions::oscillatingCosLinearMotion::transformation(): Time = 0.0351472 transformation: ((0.292715 0 0) (1 (0 0 0)))
Executing mesh motion with velocity ((-0.409048 0 0) (0 (0 0 0)))  and dt:0.000663155
Second Layer height0.005
Valor de addLayerFactor_-0.841908
Updating vertex markup
solidBodyMotionFunctions::oscillatingLinearMotion::transformation(): Time = 0.0351472 transformation: ((0 0.0657128 0) (1 (0 0 0)))
Executing mesh motion with velocity ((0 0 0) (0 (0 0 0)))  and dt:0.000663155
Updating vertex markup
solidBodyMotionFunctions::oscillatingCosLinearMotion::transformation(): Time = 0.0351472 transformation: ((0.292715 0 0) (1 (0 0 0)))
Executing mesh motion with velocity ((0 0 0) (0 (0 0 0)))  and dt:0.000663155
DILUPBiCG:  Solving for T, Initial residual = 0.00210056, Final residual = 3.27021e-10, No Iterations 41
ExecutionTime = 6.09 s
ClockTime = 6 s

Time = 0.0358103

Second Layer height0.005
Valor de addLayerFactor_0.124778
Updating vertex markup
solidBodyMotionFunctions::oscillatingLinearMotion::transformation(): Time = 0.0358103 transformation: ((0 0.0669319 0) (1 (0 0 0)))
Executing mesh motion with velocity ((0 1.83829 0) (0 (0 0 0)))  and dt:0.000663155
Updating vertex markup
solidBodyMotionFunctions::oscillatingCosLinearMotion::transformation(): Time = 0.0358103 transformation: ((0.292438 0 0) (1 (0 0 0)))
Executing mesh motion with velocity ((-0.416711 0 0) (0 (0 0 0)))  and dt:0.000663155
Second Layer height0.005
Valor de addLayerFactor_-1.05067
Local Topology change. Calculating premotion points
Updating vertex markup
solidBodyMotionFunctions::oscillatingLinearMotion::transformation(): Time = 0.0358103 transformation: ((0 0.0669319 0) (1 (0 0 0)))
Executing mesh motion with velocity ((0 0 0) (0 (0 0 0)))  and dt:0.000663155
Updating vertex markup
solidBodyMotionFunctions::oscillatingCosLinearMotion::transformation(): Time = 0.0358103 transformation: ((0.292438 0 0) (1 (0 0 0)))
Executing mesh motion with velocity ((0 0 0) (0 (0 0 0)))  and dt:0.000663155
DILUPBiCG:  Solving for T, Initial residual = 0.00206086, Final residual = 2.64457e-10, No Iterations 41
ExecutionTime = 6.25 s
ClockTime = 6 s

Time = 0.0364735

Second Layer height0.005
Valor de addLayerFactor_0.278698
Updating vertex markup
solidBodyMotionFunctions::oscillatingLinearMotion::transformation(): Time = 0.0364735 transformation: ((0 0.0681498 0) (1 (0 0 0)))
Executing mesh motion with velocity ((0 1.83654 0) (0 (0 0 0)))  and dt:0.000663155
Updating vertex markup
solidBodyMotionFunctions::oscillatingCosLinearMotion::transformation(): Time = 0.0364735 transformation: ((0.292157 0 0) (1 (0 0 0)))
Executing mesh motion with velocity ((-0.424367 0 0) (0 (0 0 0)))  and dt:0.000663155
Second Layer height0.005
Valor de addLayerFactor_0.301365
Updating vertex markup
solidBodyMotionFunctions::oscillatingLinearMotion::transformation(): Time = 0.0364735 transformation: ((0 0.0681498 0) (1 (0 0 0)))
Executing mesh motion with velocity ((0 0 0) (0 (0 0 0)))  and dt:0.000663155
Updating vertex markup
solidBodyMotionFunctions::oscillatingCosLinearMotion::transformation(): Time = 0.0364735 transformation: ((0.292157 0 0) (1 (0 0 0)))
Executing mesh motion with velocity ((0 0 0) (0 (0 0 0)))  and dt:0.000663155
DILUPBiCG:  Solving for T, Initial residual = 0.00203887, Final residual = 2.90876e-10, No Iterations 41
ExecutionTime = 6.34 s
ClockTime = 6 s

Time = 0.0371367

Second Layer height0.005
Valor de addLayerFactor_0.386489
Vector de cara a agregar: (0.00407491 0 0) Vector de faceZone: (0.005 0 0)
Vector de cara a agregar: (0.00407491 0 0) Vector de faceZone: (0.005 0 0)
Local Topology change. Calculating premotion points
Updating vertex markup
solidBodyMotionFunctions::oscillatingLinearMotion::transformation(): Time = 0.0371367 transformation: ((0 0.0693665 0) (1 (0 0 0)))
Executing mesh motion with velocity ((0 1.83475 0) (0 (0 0 0)))  and dt:0.000663155
Updating vertex markup
solidBodyMotionFunctions::oscillatingCosLinearMotion::transformation(): Time = 0.0371367 transformation: ((0.29187 0 0) (1 (0 0 0)))
Executing mesh motion with velocity ((-0.432015 0 0) (0 (0 0 0)))  and dt:0.000663155
Second Layer height0.005
Valor de addLayerFactor_0.272232
Updating vertex markup
solidBodyMotionFunctions::oscillatingLinearMotion::transformation(): Time = 0.0371367 transformation: ((0 0.0693665 0) (1 (0 0 0)))
Executing mesh motion with velocity ((0 0 0) (0 (0 0 0)))  and dt:0.000663155
Updating vertex markup
solidBodyMotionFunctions::oscillatingCosLinearMotion::transformation(): Time = 0.0371367 transformation: ((0.29187 0 0) (1 (0 0 0)))
Executing mesh motion with velocity ((0 0 0) (0 (0 0 0)))  and dt:0.000663155
DILUPBiCG:  Solving for T, Initial residual = 0.00235155, Final residual = 3.06378e-10, No Iterations 41
ExecutionTime = 6.53 s
ClockTime = 7 s

Time = 0.0377998

Second Layer height0.005
Valor de addLayerFactor_-0.145071
Updating vertex markup
solidBodyMotionFunctions::oscillatingLinearMotion::transformation(): Time = 0.0377998 transformation: ((0 0.0705821 0) (1 (0 0 0)))
Executing mesh motion with velocity ((0 1.83294 0) (0 (0 0 0)))  and dt:0.000663155
Updating vertex markup
solidBodyMotionFunctions::oscillatingCosLinearMotion::transformation(): Time = 0.0377998 transformation: ((0.291579 0 0) (1 (0 0 0)))
Executing mesh motion with velocity ((-0.439656 0 0) (0 (0 0 0)))  and dt:0.000663155
Second Layer height0.005
Valor de addLayerFactor_0.239978
Updating vertex markup
solidBodyMotionFunctions::oscillatingLinearMotion::transformation(): Time = 0.0377998 transformation: ((0 0.0705821 0) (1 (0 0 0)))
Executing mesh motion with velocity ((0 0 0) (0 (0 0 0)))  and dt:0.000663155
Updating vertex markup
solidBodyMotionFunctions::oscillatingCosLinearMotion::transformation(): Time = 0.0377998 transformation: ((0.291579 0 0) (1 (0 0 0)))
Executing mesh motion with velocity ((0 0 0) (0 (0 0 0)))  and dt:0.000663155
DILUPBiCG:  Solving for T, Initial residual = 0.00201359, Final residual = 2.6756e-10, No Iterations 41
ExecutionTime = 6.62 s
ClockTime = 7 s

Time = 0.038463

Second Layer height0.005
Valor de addLayerFactor_0.104274
Updating vertex markup
solidBodyMotionFunctions::oscillatingLinearMotion::transformation(): Time = 0.038463 transformation: ((0 0.0717964 0) (1 (0 0 0)))
Executing mesh motion with velocity ((0 1.83109 0) (0 (0 0 0)))  and dt:0.000663155
Updating vertex markup
solidBodyMotionFunctions::oscillatingCosLinearMotion::transformation(): Time = 0.038463 transformation: ((0.291282 0 0) (1 (0 0 0)))
Executing mesh motion with velocity ((-0.44729 0 0) (0 (0 0 0)))  and dt:0.000663155
Second Layer height0.005
Valor de addLayerFactor_0.204092
Updating vertex markup
solidBodyMotionFunctions::oscillatingLinearMotion::transformation(): Time = 0.038463 transformation: ((0 0.0717964 0) (1 (0 0 0)))
Executing mesh motion with velocity ((0 0 0) (0 (0 0 0)))  and dt:0.000663155
Updating vertex markup
solidBodyMotionFunctions::oscillatingCosLinearMotion::transformation(): Time = 0.038463 transformation: ((0.291282 0 0) (1 (0 0 0)))
Executing mesh motion with velocity ((0 0 0) (0 (0 0 0)))  and dt:0.000663155
DILUPBiCG:  Solving for T, Initial residual = 0.00197626, Final residual = 4.13793e-10, No Iterations 41
ExecutionTime = 6.71 s
ClockTime = 7 s

Time = 0.0391261

Second Layer height0.005
Valor de addLayerFactor_0.264312
Updating vertex markup
solidBodyMotionFunctions::oscillatingLinearMotion::transformation(): Time = 0.0391261 transformation: ((0 0.0730094 0) (1 (0 0 0)))
Executing mesh motion with velocity ((0 1.82921 0) (0 (0 0 0)))  and dt:0.000663155
Updating vertex markup
solidBodyMotionFunctions::oscillatingCosLinearMotion::transformation(): Time = 0.0391261 transformation: ((0.29098 0 0) (1 (0 0 0)))
Executing mesh motion with velocity ((-0.454915 0 0) (0 (0 0 0)))  and dt:0.000663155
Second Layer height0.005
Valor de addLayerFactor_0.163944
Updating vertex markup
solidBodyMotionFunctions::oscillatingLinearMotion::transformation(): Time = 0.0391261 transformation: ((0 0.0730094 0) (1 (0 0 0)))
Executing mesh motion with velocity ((0 0 0) (0 (0 0 0)))  and dt:0.000663155
Updating vertex markup
solidBodyMotionFunctions::oscillatingCosLinearMotion::transformation(): Time = 0.0391261 transformation: ((0.29098 0 0) (1 (0 0 0)))
Executing mesh motion with velocity ((0 0 0) (0 (0 0 0)))  and dt:0.000663155
DILUPBiCG:  Solving for T, Initial residual = 0.00195672, Final residual = 2.27091e-09, No Iterations 41
ExecutionTime = 6.79 s
ClockTime = 7 s

Time = 0.0397893

Second Layer height0.005
Valor de addLayerFactor_0.375734
Vector de cara a agregar: (0.0040047 0 0) Vector de faceZone: (0.005 0 0)
Vector de cara a agregar: (0.0040047 0 0) Vector de faceZone: (0.005 0 0)
Local Topology change. Calculating premotion points
Updating vertex markup
solidBodyMotionFunctions::oscillatingLinearMotion::transformation(): Time = 0.0397893 transformation: ((0 0.0742212 0) (1 (0 0 0)))
Executing mesh motion with velocity ((0 1.8273 0) (0 (0 0 0)))  and dt:0.000663155
Updating vertex markup
solidBodyMotionFunctions::oscillatingCosLinearMotion::transformation(): Time = 0.0397893 transformation: ((0.290674 0 0) (1 (0 0 0)))
Executing mesh motion with velocity ((-0.462533 0 0) (0 (0 0 0)))  and dt:0.000663155
Second Layer height0.005
Valor de addLayerFactor_0.118745
Updating vertex markup
solidBodyMotionFunctions::oscillatingLinearMotion::transformation(): Time = 0.0397893 transformation: ((0 0.0742212 0) (1 (0 0 0)))
Executing mesh motion with velocity ((0 0 0) (0 (0 0 0)))  and dt:0.000663155
Updating vertex markup
solidBodyMotionFunctions::oscillatingCosLinearMotion::transformation(): Time = 0.0397893 transformation: ((0.290674 0 0) (1 (0 0 0)))
Executing mesh motion with velocity ((0 0 0) (0 (0 0 0)))  and dt:0.000663155
DILUPBiCG:  Solving for T, Initial residual = 0.00227368, Final residual = 7.18121e-10, No Iterations 41
ExecutionTime = 7.1 s
ClockTime = 7 s

Time = 0.0404524

Second Layer height0.005
Valor de addLayerFactor_-0.184501
Updating vertex markup
solidBodyMotionFunctions::oscillatingLinearMotion::transformation(): Time = 0.0404524 transformation: ((0 0.0754317 0) (1 (0 0 0)))
Executing mesh motion with velocity ((0 1.82536 0) (0 (0 0 0)))  and dt:0.000663155
Updating vertex markup
solidBodyMotionFunctions::oscillatingCosLinearMotion::transformation(): Time = 0.0404524 transformation: ((0.290362 0 0) (1 (0 0 0)))
Executing mesh motion with velocity ((-0.470143 0 0) (0 (0 0 0)))  and dt:0.000663155
Second Layer height0.005
Valor de addLayerFactor_0.0675033
Updating vertex markup
solidBodyMotionFunctions::oscillatingLinearMotion::transformation(): Time = 0.0404524 transformation: ((0 0.0754317 0) (1 (0 0 0)))
Executing mesh motion with velocity ((0 0 0) (0 (0 0 0)))  and dt:0.000663155
Updating vertex markup
[...]
solidBodyMotionFunctions::oscillatingLinearMotion::transformation(): Time = 0.99009 transformation: ((-0 -0.0186935 -0) (1 (0 0 0)))
Executing mesh motion with velocity ((0 0 0) (0 (0 0 0)))  and dt:0.000663155
Updating vertex markup
solidBodyMotionFunctions::oscillatingCosLinearMotion::transformation(): Time = 0.99009 transformation: ((0.299417 0 0) (1 (0 0 0)))
Executing mesh motion with velocity ((0 0 0) (0 (0 0 0)))  and dt:0.000663155
DILUPBiCG:  Solving for T, Initial residual = 0.000485919, Final residual = 6.35392e-10, No Iterations 41
ExecutionTime = 205.26 s
ClockTime = 211 s

Time = 0.990753

Second Layer height0.005
Valor de addLayerFactor_0.207171
Updating vertex markup
solidBodyMotionFunctions::oscillatingLinearMotion::transformation(): Time = 0.990753 transformation: ((-0 -0.0174457 -0) (1 (0 0 0)))
Executing mesh motion with velocity ((0 1.88151 0) (0 (0 0 0)))  and dt:0.000663155
Updating vertex markup
solidBodyMotionFunctions::oscillatingCosLinearMotion::transformation(): Time = 0.990753 transformation: ((0.299492 0 0) (1 (0 0 0)))
Executing mesh motion with velocity ((0.113533 0 0) (0 (0 0 0)))  and dt:0.000663155
Second Layer height0.005
Valor de addLayerFactor_-0.113012
Updating vertex markup
solidBodyMotionFunctions::oscillatingLinearMotion::transformation(): Time = 0.990753 transformation: ((-0 -0.0174457 -0) (1 (0 0 0)))
Executing mesh motion with velocity ((0 0 0) (0 (0 0 0)))  and dt:0.000663155
Updating vertex markup
solidBodyMotionFunctions::oscillatingCosLinearMotion::transformation(): Time = 0.990753 transformation: ((0.299492 0 0) (1 (0 0 0)))
Executing mesh motion with velocity ((0 0 0) (0 (0 0 0)))  and dt:0.000663155
DILUPBiCG:  Solving for T, Initial residual = 0.000502159, Final residual = 2.99896e-10, No Iterations 41
ExecutionTime = 205.34 s
ClockTime = 211 s

Time = 0.991416

Second Layer height0.005
Valor de addLayerFactor_0.338121
Vector de cara a agregar: (-0.00377713 0 0) Vector de faceZone: (-0.005 0 0)
Vector de cara a agregar: (-0.00377713 0 0) Vector de faceZone: (-0.005 0 0)
Local Topology change. Calculating premotion points
Updating vertex markup
solidBodyMotionFunctions::oscillatingLinearMotion::transformation(): Time = 0.991416 transformation: ((-0 -0.0161977 -0) (1 (0 0 0)))
Executing mesh motion with velocity ((0 1.88196 0) (0 (0 0 0)))  and dt:0.000663155
Updating vertex markup
solidBodyMotionFunctions::oscillatingCosLinearMotion::transformation(): Time = 0.991416 transformation: ((0.299562 0 0) (1 (0 0 0)))
Executing mesh motion with velocity ((0.105693 0 0) (0 (0 0 0)))  and dt:0.000663155
Second Layer height0.005
Valor de addLayerFactor_-0.0959134
Updating vertex markup
solidBodyMotionFunctions::oscillatingLinearMotion::transformation(): Time = 0.991416 transformation: ((-0 -0.0161977 -0) (1 (0 0 0)))
Executing mesh motion with velocity ((0 0 0) (0 (0 0 0)))  and dt:0.000663155
Updating vertex markup
solidBodyMotionFunctions::oscillatingCosLinearMotion::transformation(): Time = 0.991416 transformation: ((0.299562 0 0) (1 (0 0 0)))
Executing mesh motion with velocity ((0 0 0) (0 (0 0 0)))  and dt:0.000663155
DILUPBiCG:  Solving for T, Initial residual = 0.00100474, Final residual = 7.9515e-10, No Iterations 41
ExecutionTime = 205.51 s
ClockTime = 211 s

Time = 0.992079

Second Layer height0.005
Valor de addLayerFactor_-0.314998
Updating vertex markup
solidBodyMotionFunctions::oscillatingLinearMotion::transformation(): Time = 0.992079 transformation: ((-0 -0.0149494 -0) (1 (0 0 0)))
Executing mesh motion with velocity ((0 1.88239 0) (0 (0 0 0)))  and dt:0.000663155
Updating vertex markup
solidBodyMotionFunctions::oscillatingCosLinearMotion::transformation(): Time = 0.992079 transformation: ((0.299627 0 0) (1 (0 0 0)))
Executing mesh motion with velocity ((0.0978503 0 0) (0 (0 0 0)))  and dt:0.000663155
Second Layer height0.005
Valor de addLayerFactor_-0.0805451
Updating vertex markup
solidBodyMotionFunctions::oscillatingLinearMotion::transformation(): Time = 0.992079 transformation: ((-0 -0.0149494 -0) (1 (0 0 0)))
Executing mesh motion with velocity ((0 0 0) (0 (0 0 0)))  and dt:0.000663155
Updating vertex markup
solidBodyMotionFunctions::oscillatingCosLinearMotion::transformation(): Time = 0.992079 transformation: ((0.299627 0 0) (1 (0 0 0)))
Executing mesh motion with velocity ((0 0 0) (0 (0 0 0)))  and dt:0.000663155
DILUPBiCG:  Solving for T, Initial residual = 0.000496413, Final residual = 1.05877e-09, No Iterations 41
ExecutionTime = 205.59 s
ClockTime = 212 s

Time = 0.992742

Second Layer height0.005
Valor de addLayerFactor_0.010019
Updating vertex markup
solidBodyMotionFunctions::oscillatingLinearMotion::transformation(): Time = 0.992742 transformation: ((-0 -0.0137008 -0) (1 (0 0 0)))
Executing mesh motion with velocity ((0 1.88278 0) (0 (0 0 0)))  and dt:0.000663155
Updating vertex markup
solidBodyMotionFunctions::oscillatingCosLinearMotion::transformation(): Time = 0.992742 transformation: ((0.299687 0 0) (1 (0 0 0)))
Executing mesh motion with velocity ((0.0900062 0 0) (0 (0 0 0)))  and dt:0.000663155
Second Layer height0.005
Valor de addLayerFactor_-0.0667845
Updating vertex markup
solidBodyMotionFunctions::oscillatingLinearMotion::transformation(): Time = 0.992742 transformation: ((-0 -0.0137008 -0) (1 (0 0 0)))
Executing mesh motion with velocity ((0 0 0) (0 (0 0 0)))  and dt:0.000663155
Updating vertex markup
solidBodyMotionFunctions::oscillatingCosLinearMotion::transformation(): Time = 0.992742 transformation: ((0.299687 0 0) (1 (0 0 0)))
Executing mesh motion with velocity ((0 0 0) (0 (0 0 0)))  and dt:0.000663155
DILUPBiCG:  Solving for T, Initial residual = 0.000486298, Final residual = 7.62251e-10, No Iterations 41
ExecutionTime = 205.67 s
ClockTime = 212 s

Time = 0.993406

Second Layer height0.005
Valor de addLayerFactor_0.206245
Updating vertex markup
solidBodyMotionFunctions::oscillatingLinearMotion::transformation(): Time = 0.993406 transformation: ((-0 -0.012452 -0) (1 (0 0 0)))
Executing mesh motion with velocity ((0 1.88314 0) (0 (0 0 0)))  and dt:0.000663155
Updating vertex markup
solidBodyMotionFunctions::oscillatingCosLinearMotion::transformation(): Time = 0.993406 transformation: ((0.299741 0 0) (1 (0 0 0)))
Executing mesh motion with velocity ((0.0821606 0 0) (0 (0 0 0)))  and dt:0.000663155
Second Layer height0.005
Valor de addLayerFactor_-0.0545258
Updating vertex markup
solidBodyMotionFunctions::oscillatingLinearMotion::transformation(): Time = 0.993406 transformation: ((-0 -0.012452 -0) (1 (0 0 0)))
Executing mesh motion with velocity ((0 0 0) (0 (0 0 0)))  and dt:0.000663155
Updating vertex markup
solidBodyMotionFunctions::oscillatingCosLinearMotion::transformation(): Time = 0.993406 transformation: ((0.299741 0 0) (1 (0 0 0)))
Executing mesh motion with velocity ((0 0 0) (0 (0 0 0)))  and dt:0.000663155
DILUPBiCG:  Solving for T, Initial residual = 0.00050247, Final residual = 2.62473e-10, No Iterations 41
ExecutionTime = 205.75 s
ClockTime = 212 s

Time = 0.994069

Second Layer height0.005
Valor de addLayerFactor_0.337572
Vector de cara a agregar: (-0.00377399 0 0) Vector de faceZone: (-0.005 0 0)
Vector de cara a agregar: (-0.00377399 0 0) Vector de faceZone: (-0.005 0 0)
Local Topology change. Calculating premotion points
Updating vertex markup
solidBodyMotionFunctions::oscillatingLinearMotion::transformation(): Time = 0.994069 transformation: ((-0 -0.011203 -0) (1 (0 0 0)))
Executing mesh motion with velocity ((0 1.88346 0) (0 (0 0 0)))  and dt:0.000663155
Updating vertex markup
solidBodyMotionFunctions::oscillatingCosLinearMotion::transformation(): Time = 0.994069 transformation: ((0.299791 0 0) (1 (0 0 0)))
Executing mesh motion with velocity ((0.0743135 0 0) (0 (0 0 0)))  and dt:0.000663155
Second Layer height0.005
Valor de addLayerFactor_-0.0436782
Updating vertex markup
solidBodyMotionFunctions::oscillatingLinearMotion::transformation(): Time = 0.994069 transformation: ((-0 -0.011203 -0) (1 (0 0 0)))
Executing mesh motion with velocity ((0 0 0) (0 (0 0 0)))  and dt:0.000663155
Updating vertex markup
solidBodyMotionFunctions::oscillatingCosLinearMotion::transformation(): Time = 0.994069 transformation: ((0.299791 0 0) (1 (0 0 0)))
Executing mesh motion with velocity ((0 0 0) (0 (0 0 0)))  and dt:0.000663155
DILUPBiCG:  Solving for T, Initial residual = 0.001004, Final residual = 8.09472e-10, No Iterations 41
ExecutionTime = 205.92 s
ClockTime = 212 s

Time = 0.994732

Second Layer height0.005
Valor de addLayerFactor_-0.316824
Updating vertex markup
solidBodyMotionFunctions::oscillatingLinearMotion::transformation(): Time = 0.994732 transformation: ((-0 -0.00995376 -0) (1 (0 0 0)))
Executing mesh motion with velocity ((0 1.88376 0) (0 (0 0 0)))  and dt:0.000663155
Updating vertex markup
solidBodyMotionFunctions::oscillatingCosLinearMotion::transformation(): Time = 0.994732 transformation: ((0.299835 0 0) (1 (0 0 0)))
Executing mesh motion with velocity ((0.0664651 0 0) (0 (0 0 0)))  and dt:0.000663155
Second Layer height0.005
Valor de addLayerFactor_-0.0341635
Updating vertex markup
solidBodyMotionFunctions::oscillatingLinearMotion::transformation(): Time = 0.994732 transformation: ((-0 -0.00995376 -0) (1 (0 0 0)))
Executing mesh motion with velocity ((0 0 0) (0 (0 0 0)))  and dt:0.000663155
Updating vertex markup
solidBodyMotionFunctions::oscillatingCosLinearMotion::transformation(): Time = 0.994732 transformation: ((0.299835 0 0) (1 (0 0 0)))
Executing mesh motion with velocity ((0 0 0) (0 (0 0 0)))  and dt:0.000663155
DILUPBiCG:  Solving for T, Initial residual = 0.000496701, Final residual = 9.25991e-10, No Iterations 41
ExecutionTime = 206.1 s
ClockTime = 212 s

Time = 0.995395

Second Layer height0.005
Valor de addLayerFactor_0.00916234
Updating vertex markup
solidBodyMotionFunctions::oscillatingLinearMotion::transformation(): Time = 0.995395 transformation: ((-0 -0.00870437 -0) (1 (0 0 0)))
Executing mesh motion with velocity ((0 1.88402 0) (0 (0 0 0)))  and dt:0.000663155
Updating vertex markup
solidBodyMotionFunctions::oscillatingCosLinearMotion::transformation(): Time = 0.995395 transformation: ((0.299874 0 0) (1 (0 0 0)))
Executing mesh motion with velocity ((0.0586155 0 0) (0 (0 0 0)))  and dt:0.000663155
Second Layer height0.005
Valor de addLayerFactor_-0.0259153
Updating vertex markup
solidBodyMotionFunctions::oscillatingLinearMotion::transformation(): Time = 0.995395 transformation: ((-0 -0.00870437 -0) (1 (0 0 0)))
Executing mesh motion with velocity ((0 0 0) (0 (0 0 0)))  and dt:0.000663155
Updating vertex markup
solidBodyMotionFunctions::oscillatingCosLinearMotion::transformation(): Time = 0.995395 transformation: ((0.299874 0 0) (1 (0 0 0)))
Executing mesh motion with velocity ((0 0 0) (0 (0 0 0)))  and dt:0.000663155
DILUPBiCG:  Solving for T, Initial residual = 0.000486579, Final residual = 7.98125e-10, No Iterations 41
ExecutionTime = 206.18 s
ClockTime = 212 s

Time = 0.996058

Second Layer height0.005
Valor de addLayerFactor_0.205798
Updating vertex markup
solidBodyMotionFunctions::oscillatingLinearMotion::transformation(): Time = 0.996058 transformation: ((-0 -0.00745482 -0) (1 (0 0 0)))
Executing mesh motion with velocity ((0 1.88424 0) (0 (0 0 0)))  and dt:0.000663155
Updating vertex markup
solidBodyMotionFunctions::oscillatingCosLinearMotion::transformation(): Time = 0.996058 transformation: ((0.299907 0 0) (1 (0 0 0)))
Executing mesh motion with velocity ((0.050765 0 0) (0 (0 0 0)))  and dt:0.000663155
Second Layer height0.005
Valor de addLayerFactor_-0.0188774
Updating vertex markup
solidBodyMotionFunctions::oscillatingLinearMotion::transformation(): Time = 0.996058 transformation: ((-0 -0.00745482 -0) (1 (0 0 0)))
Executing mesh motion with velocity ((0 0 0) (0 (0 0 0)))  and dt:0.000663155
Updating vertex markup
solidBodyMotionFunctions::oscillatingCosLinearMotion::transformation(): Time = 0.996058 transformation: ((0.299907 0 0) (1 (0 0 0)))
Executing mesh motion with velocity ((0 0 0) (0 (0 0 0)))  and dt:0.000663155
DILUPBiCG:  Solving for T, Initial residual = 0.000502707, Final residual = 2.58305e-10, No Iterations 41
ExecutionTime = 206.26 s
ClockTime = 212 s

Time = 0.996721

Second Layer height0.005
Valor de addLayerFactor_0.337325
Vector de cara a agregar: (-0.00377259 0 0) Vector de faceZone: (-0.005 0 0)
Vector de cara a agregar: (-0.00377259 0 0) Vector de faceZone: (-0.005 0 0)
Local Topology change. Calculating premotion points
Updating vertex markup
solidBodyMotionFunctions::oscillatingLinearMotion::transformation(): Time = 0.996721 transformation: ((-0 -0.00620515 -0) (1 (0 0 0)))
Executing mesh motion with velocity ((0 1.88444 0) (0 (0 0 0)))  and dt:0.000663155
Updating vertex markup
solidBodyMotionFunctions::oscillatingCosLinearMotion::transformation(): Time = 0.996721 transformation: ((0.299936 0 0) (1 (0 0 0)))
Executing mesh motion with velocity ((0.0429136 0 0) (0 (0 0 0)))  and dt:0.000663155
Second Layer height0.005
Valor de addLayerFactor_-0.0130029
Updating vertex markup
solidBodyMotionFunctions::oscillatingLinearMotion::transformation(): Time = 0.996721 transformation: ((-0 -0.00620515 -0) (1 (0 0 0)))
Executing mesh motion with velocity ((0 0 0) (0 (0 0 0)))  and dt:0.000663155
Updating vertex markup
solidBodyMotionFunctions::oscillatingCosLinearMotion::transformation(): Time = 0.996721 transformation: ((0.299936 0 0) (1 (0 0 0)))
Executing mesh motion with velocity ((0 0 0) (0 (0 0 0)))  and dt:0.000663155
DILUPBiCG:  Solving for T, Initial residual = 0.00100374, Final residual = 8.56629e-10, No Iterations 41
ExecutionTime = 206.43 s
ClockTime = 212 s

Time = 0.997385

Second Layer height0.005
Valor de addLayerFactor_-0.317575
Updating vertex markup
solidBodyMotionFunctions::oscillatingLinearMotion::transformation(): Time = 0.997385 transformation: ((-0 -0.00495537 -0) (1 (0 0 0)))
Executing mesh motion with velocity ((0 1.8846 0) (0 (0 0 0)))  and dt:0.000663155
Updating vertex markup
solidBodyMotionFunctions::oscillatingCosLinearMotion::transformation(): Time = 0.997385 transformation: ((0.299959 0 0) (1 (0 0 0)))
Executing mesh motion with velocity ((0.0350614 0 0) (0 (0 0 0)))  and dt:0.000663155
Second Layer height0.005
Valor de addLayerFactor_-0.00825334
Updating vertex markup
solidBodyMotionFunctions::oscillatingLinearMotion::transformation(): Time = 0.997385 transformation: ((-0 -0.00495537 -0) (1 (0 0 0)))
Executing mesh motion with velocity ((0 0 0) (0 (0 0 0)))  and dt:0.000663155
Updating vertex markup
solidBodyMotionFunctions::oscillatingCosLinearMotion::transformation(): Time = 0.997385 transformation: ((0.299959 0 0) (1 (0 0 0)))
Executing mesh motion with velocity ((0 0 0) (0 (0 0 0)))  and dt:0.000663155
DILUPBiCG:  Solving for T, Initial residual = 0.000496887, Final residual = 8.13954e-10, No Iterations 41
ExecutionTime = 206.51 s
ClockTime = 213 s

Time = 0.998048

Second Layer height0.005
Valor de addLayerFactor_0.00884771
Updating vertex markup
solidBodyMotionFunctions::oscillatingLinearMotion::transformation(): Time = 0.998048 transformation: ((-0 -0.0037055 -0) (1 (0 0 0)))
Executing mesh motion with velocity ((0 1.88473 0) (0 (0 0 0)))  and dt:0.000663155
Updating vertex markup
solidBodyMotionFunctions::oscillatingCosLinearMotion::transformation(): Time = 0.998048 transformation: ((0.299977 0 0) (1 (0 0 0)))
Executing mesh motion with velocity ((0.0272086 0 0) (0 (0 0 0)))  and dt:0.000663155
Second Layer height0.005
Valor de addLayerFactor_-0.00459812
Updating vertex markup
solidBodyMotionFunctions::oscillatingLinearMotion::transformation(): Time = 0.998048 transformation: ((-0 -0.0037055 -0) (1 (0 0 0)))
Executing mesh motion with velocity ((0 0 0) (0 (0 0 0)))  and dt:0.000663155
Updating vertex markup
solidBodyMotionFunctions::oscillatingCosLinearMotion::transformation(): Time = 0.998048 transformation: ((0.299977 0 0) (1 (0 0 0)))
Executing mesh motion with velocity ((0 0 0) (0 (0 0 0)))  and dt:0.000663155
DILUPBiCG:  Solving for T, Initial residual = 0.000486747, Final residual = 7.10584e-10, No Iterations 41
ExecutionTime = 206.59 s
ClockTime = 213 s

Time = 0.998711

Second Layer height0.005
Valor de addLayerFactor_0.205656
Updating vertex markup
solidBodyMotionFunctions::oscillatingLinearMotion::transformation(): Time = 0.998711 transformation: ((-0 -0.00245556 -0) (1 (0 0 0)))
Executing mesh motion with velocity ((0 1.88483 0) (0 (0 0 0)))  and dt:0.000663155
Updating vertex markup
solidBodyMotionFunctions::oscillatingCosLinearMotion::transformation(): Time = 0.998711 transformation: ((0.29999 0 0) (1 (0 0 0)))
Executing mesh motion with velocity ((0.0193553 0 0) (0 (0 0 0)))  and dt:0.000663155
Second Layer height0.005
Valor de addLayerFactor_-0.00201401
Updating vertex markup
solidBodyMotionFunctions::oscillatingLinearMotion::transformation(): Time = 0.998711 transformation: ((-0 -0.00245556 -0) (1 (0 0 0)))
Executing mesh motion with velocity ((0 0 0) (0 (0 0 0)))  and dt:0.000663155
Updating vertex markup
solidBodyMotionFunctions::oscillatingCosLinearMotion::transformation(): Time = 0.998711 transformation: ((0.29999 0 0) (1 (0 0 0)))
Executing mesh motion with velocity ((0 0 0) (0 (0 0 0)))  and dt:0.000663155
DILUPBiCG:  Solving for T, Initial residual = 0.000502845, Final residual = 2.68275e-10, No Iterations 41
ExecutionTime = 206.67 s
ClockTime = 213 s

Time = 0.999374

Second Layer height0.005
Valor de addLayerFactor_0.33726
Vector de cara a agregar: (-0.00377222 0 0) Vector de faceZone: (-0.005 0 0)
Vector de cara a agregar: (-0.00377222 0 0) Vector de faceZone: (-0.005 0 0)
Local Topology change. Calculating premotion points
Updating vertex markup
solidBodyMotionFunctions::oscillatingLinearMotion::transformation(): Time = 0.999374 transformation: ((-0 -0.00120559 -0) (1 (0 0 0)))
Executing mesh motion with velocity ((0 1.88489 0) (0 (0 0 0)))  and dt:0.000663155
Updating vertex markup
solidBodyMotionFunctions::oscillatingCosLinearMotion::transformation(): Time = 0.999374 transformation: ((0.299998 0 0) (1 (0 0 0)))
Executing mesh motion with velocity ((0.0115017 0 0) (0 (0 0 0)))  and dt:0.000663155
Second Layer height0.005
Valor de addLayerFactor_-0.000484718
Updating vertex markup
solidBodyMotionFunctions::oscillatingLinearMotion::transformation(): Time = 0.999374 transformation: ((-0 -0.00120559 -0) (1 (0 0 0)))
Executing mesh motion with velocity ((0 0 0) (0 (0 0 0)))  and dt:0.000663155
Updating vertex markup
solidBodyMotionFunctions::oscillatingCosLinearMotion::transformation(): Time = 0.999374 transformation: ((0.299998 0 0) (1 (0 0 0)))
Executing mesh motion with velocity ((0 0 0) (0 (0 0 0)))  and dt:0.000663155
DILUPBiCG:  Solving for T, Initial residual = 0.00100372, Final residual = 8.99519e-10, No Iterations 41
ExecutionTime = 206.84 s
ClockTime = 213 s

Time = 1.00004

Second Layer height0.005
Valor de addLayerFactor_-0.317727
Updating vertex markup
solidBodyMotionFunctions::oscillatingLinearMotion::transformation(): Time = 1.00004 transformation: ((0 4.44081e-05 0) (1 (0 0 0)))
Executing mesh motion with velocity ((0 1.88493 0) (0 (0 0 0)))  and dt:0.000663155
Updating vertex markup
solidBodyMotionFunctions::oscillatingCosLinearMotion::transformation(): Time = 1.00004 transformation: ((0.3 0 0) (1 (0 0 0)))
Executing mesh motion with velocity ((0.00364791 0 0) (0 (0 0 0)))  and dt:0.000663155
Second Layer height0.005
Valor de addLayerFactor_-6.57363e-07
Updating vertex markup
solidBodyMotionFunctions::oscillatingLinearMotion::transformation(): Time = 1.00004 transformation: ((0 4.44081e-05 0) (1 (0 0 0)))
Executing mesh motion with velocity ((0 0 0) (0 (0 0 0)))  and dt:0.000663155
Updating vertex markup
solidBodyMotionFunctions::oscillatingCosLinearMotion::transformation(): Time = 1.00004 transformation: ((0.3 0 0) (1 (0 0 0)))
Executing mesh motion with velocity ((0 0 0) (0 (0 0 0)))  and dt:0.000663155
DILUPBiCG:  Solving for T, Initial residual = 0.000496959, Final residual = 7.33574e-10, No Iterations 41
ExecutionTime = 206.92 s
ClockTime = 213 s

End

Finalising parallel run
